1

   Abaqus 6.14-2                                  Date 05-mar-2016   Time 11:21:59
   For use by Team AWXS under license from Dassault Systemes or its subsidiary.

 Linear Elastic Steel Connecting Lug                                             
 Apply uniform pressure to the hole                                              
 STEP    1     INCREMENT     1     STEP TIME    0.00    


                        S T E P       1     S T A T I C   A N A L Y S I S


          Apply uniform pressure to the hole                                              

     AUTOMATIC TIME CONTROL WITH -
          A SUGGESTED INITIAL TIME INCREMENT OF                 1.00    
          AND A TOTAL TIME PERIOD OF                            1.00    
          THE MINIMUM TIME INCREMENT ALLOWED IS                1.000E-05
          THE MAXIMUM TIME INCREMENT ALLOWED IS                 1.00    

     LINEAR EQUATION SOLVER TYPE         DIRECT SPARSE

 CONVERGENCE TOLERANCE PARAMETERS FOR FORCE    
     CRITERION FOR RESIDUAL FORCE     FOR A NONLINEAR PROBLEM          5.000E-03
     CRITERION FOR DISP.    CORRECTION IN A NONLINEAR PROBLEM          1.000E-02
     INITIAL VALUE OF TIME AVERAGE FORCE                               1.000E-02
     AVERAGE FORCE     IS TIME AVERAGE FORCE    
     ALTERNATE CRIT. FOR RESIDUAL FORCE     FOR A NONLINEAR PROBLEM    2.000E-02
     CRITERION FOR ZERO FORCE     RELATIVE TO TIME AVRG. FORCE         1.000E-05
     CRITERION FOR RESIDUAL FORCE     WHEN THERE IS ZERO FLUX          1.000E-05
     CRITERION FOR DISP.    CORRECTION WHEN THERE IS ZERO FLUX         1.000E-03
     CRITERION FOR RESIDUAL FORCE     FOR A LINEAR INCREMENT           1.000E-08
     FIELD CONVERSION RATIO                                             1.00    
     CRITERION FOR ZERO FORCE     REL. TO TIME AVRG. MAX. FORCE        1.000E-05
     CRITERION FOR ZERO DISP.    RELATIVE TO CHARACTERISTIC LENGTH     1.000E-08

     VOLUMETRIC STRAIN COMPATIBILITY TOLERANCE FOR HYBRID SOLIDS       1.000E-05
     AXIAL STRAIN COMPATIBILITY TOLERANCE FOR HYBRID BEAMS             1.000E-05
     TRANS. SHEAR STRAIN COMPATIBILITY TOLERANCE FOR HYBRID BEAMS      1.000E-05
     SOFT CONTACT CONSTRAINT COMPATIBILITY TOLERANCE FOR P>P0          5.000E-03
     SOFT CONTACT CONSTRAINT COMPATIBILITY TOLERANCE FOR P=0.0         0.100    
     CONTACT FORCE ERROR TOLERANCE FOR CONVERT SDI=YES                 1.00    
     DISPLACEMENT COMPATIBILITY TOLERANCE FOR DCOUP ELEMENTS           1.000E-05
     ROTATION COMPATIBILITY TOLERANCE FOR DCOUP ELEMENTS               1.000E-05

 EQUILIBRIUM WILL BE CHECKED FOR SEVERE DISCONTINUITY ITERATIONS

 TIME INCREMENTATION CONTROL PARAMETERS:
     FIRST EQUILIBRIUM ITERATION FOR CONSECUTIVE DIVERGENCE CHECK              4
     EQUILIBRIUM ITERATION AT WHICH LOG. CONVERGENCE RATE CHECK BEGINS         8
     EQUILIBRIUM ITERATION AFTER WHICH ALTERNATE RESIDUAL IS USED              9
     MAXIMUM EQUILIBRIUM ITERATIONS ALLOWED                                   16
     EQUILIBRIUM ITERATION COUNT FOR CUT-BACK IN NEXT INCREMENT               10
     MAXIMUM EQUILIB. ITERS IN TWO INCREMENTS FOR TIME INCREMENT INCREASE      4
     MAXIMUM ITERATIONS FOR SEVERE DISCONTINUITIES                            50
     MAXIMUM CUT-BACKS ALLOWED IN AN INCREMENT                                 5
     MAXIMUM DISCON. ITERS IN TWO INCREMENTS FOR TIME INCREMENT INCREASE      50
     MAXIMUM CONTACT AUGMENTATIONS FOR *SURFACE BEHAVIOR,AUGMENTED LAGRANGE   50
     CUT-BACK FACTOR AFTER DIVERGENCE                                 0.2500    
     CUT-BACK FACTOR FOR TOO SLOW CONVERGENCE                         0.5000    
     CUT-BACK FACTOR AFTER TOO MANY EQUILIBRIUM ITERATIONS            0.7500    
     CUT-BACK FACTOR AFTER TOO MANY SEVERE DISCONTINUITY ITERATIONS   0.2500    
     CUT-BACK FACTOR AFTER PROBLEMS IN ELEMENT ASSEMBLY               0.2500    
     INCREASE FACTOR AFTER TWO INCREMENTS THAT CONVERGE QUICKLY        1.500    
     MAX. TIME INCREMENT INCREASE FACTOR ALLOWED                       1.500    
     MAX. TIME INCREMENT INCREASE FACTOR ALLOWED (DYNAMICS)            1.250    
     MAX. TIME INCREMENT INCREASE FACTOR ALLOWED (DIFFUSION)           2.000    
     MINIMUM TIME INCREMENT RATIO FOR EXTRAPOLATION TO OCCUR          0.1000    
     MAX. RATIO OF TIME INCREMENT TO STABILITY LIMIT                   1.000    
     FRACTION OF STABILITY LIMIT FOR NEW TIME INCREMENT               0.9500    
     TIME INCREMENT INCREASE FACTOR BEFORE A TIME POINT                1.000    
     GLOBAL STABILIZATION CONTROL IS NOT USED

          PRINT OF INCREMENT NUMBER, TIME, ETC., EVERY    1  INCREMENTS

     THE MAXIMUM NUMBER OF INCREMENTS IN THIS STEP IS                     100

     LINEAR EXTRAPOLATION WILL BE USED

     CHARACTERISTIC ELEMENT LENGTH     7.086E-03

     DETAILS REGARDING ACTUAL SOLUTION WAVEFRONT REQUESTED

     DETAILED OUTPUT OF DIAGNOSTICS TO DATABASE REQUESTED

     PRINT OF INCREMENT NUMBER, TIME, ETC., TO THE MESSAGE FILE EVERY     1  INCREMENTS
          THE INITIAL TIME INCREMENT WAS REDUCED TO   1.000E-02 TO MEET THE NEXT OUTPUT TIME POINT

     COLLECTING MODEL CONSTRAINT INFORMATION FOR OVERCONSTRAINT CHECKS

     COLLECTING STEP CONSTRAINT INFORMATION FOR OVERCONSTRAINT CHECKS


  INCREMENT     1 STARTS. ATTEMPT NUMBER  1, TIME INCREMENT  1.000E-02

  NUMBER OF EQUATIONS =     5457     NUMBER OF FLOATING PT. OPERATIONS =  4.55E+08

     CHECK POINT   START OF SOLVER    

     CHECK POINT  END OF SOLVER       

       ELAPSED USER TIME (SEC)      =  0.40000    
       ELAPSED SYSTEM TIME (SEC)    =  0.10000    
       ELAPSED TOTAL CPU TIME (SEC) =  0.50000    
       ELAPSED WALLCLOCK TIME (SEC) =          1

               CONVERGENCE CHECKS FOR EQUILIBRIUM ITERATION     1


 AVERAGE FORCE                       2.44       TIME AVG. FORCE        2.44    
 LARGEST RESIDUAL FORCE            -1.561E-11   AT NODE       1399   DOF  2
   INSTANCE: LUG-1                                                                           
 LARGEST INCREMENT OF DISP.        -4.220E-06   AT NODE       1610   DOF  2
   INSTANCE: LUG-1                                                                           
 LARGEST CORRECTION TO DISP.       -4.220E-06   AT NODE       1610   DOF  2
   INSTANCE: LUG-1                                                                           
          THE FORCE     EQUILIBRIUM RESPONSE WAS LINEAR IN THIS INCREMENT
          TIME INCREMENT MAY NOW INCREASE TO     1.00    
          TIME INCREMENT REDUCED TO   1.000E-02 TO MEET NEXT OUTPUT TIME POINT

 ITERATION SUMMARY FOR THE INCREMENT:   1 TOTAL ITERATIONS, OF WHICH
   0 ARE SEVERE DISCONTINUITY ITERATIONS AND  1 ARE EQUILIBRIUM ITERATIONS.

 TIME INCREMENT COMPLETED  1.000E-02,  FRACTION OF STEP COMPLETED  1.000E-02
 STEP TIME COMPLETED       1.000E-02,  TOTAL TIME COMPLETED        1.000E-02


  INCREMENT     2 STARTS. ATTEMPT NUMBER  1, TIME INCREMENT  1.000E-02

  NUMBER OF EQUATIONS =     5457     NUMBER OF FLOATING PT. OPERATIONS =  4.55E+08

     CHECK POINT   START OF SOLVER    

     CHECK POINT  END OF SOLVER       

       ELAPSED USER TIME (SEC)      =  0.10000    
       ELAPSED SYSTEM TIME (SEC)    =   0.0000    
       ELAPSED TOTAL CPU TIME (SEC) =  0.10000    
       ELAPSED WALLCLOCK TIME (SEC) =          0

               CONVERGENCE CHECKS FOR EQUILIBRIUM ITERATION     1


 AVERAGE FORCE                       7.33       TIME AVG. FORCE        4.89    
 LARGEST RESIDUAL FORCE            -4.722E-12   AT NODE       1417   DOF  2
   INSTANCE: LUG-1                                                                           
 LARGEST INCREMENT OF DISP.        -4.220E-06   AT NODE       1610   DOF  2
   INSTANCE: LUG-1                                                                           
 LARGEST CORRECTION TO DISP.       -1.867E-18   AT NODE       1604   DOF  3
   INSTANCE: LUG-1                                                                           
          THE FORCE     EQUILIBRIUM RESPONSE WAS LINEAR IN THIS INCREMENT
          TIME INCREMENT MAY NOW INCREASE TO     1.00    
          TIME INCREMENT REDUCED TO   1.000E-02 TO MEET NEXT OUTPUT TIME POINT

 ITERATION SUMMARY FOR THE INCREMENT:   1 TOTAL ITERATIONS, OF WHICH
   0 ARE SEVERE DISCONTINUITY ITERATIONS AND  1 ARE EQUILIBRIUM ITERATIONS.

 TIME INCREMENT COMPLETED  1.000E-02,  FRACTION OF STEP COMPLETED  2.000E-02
 STEP TIME COMPLETED       2.000E-02,  TOTAL TIME COMPLETED        2.000E-02


  INCREMENT     3 STARTS. ATTEMPT NUMBER  1, TIME INCREMENT  1.000E-02

  NUMBER OF EQUATIONS =     5457     NUMBER OF FLOATING PT. OPERATIONS =  4.55E+08

     CHECK POINT   START OF SOLVER    

     CHECK POINT  END OF SOLVER       

       ELAPSED USER TIME (SEC)      =   0.0000    
       ELAPSED SYSTEM TIME (SEC)    =   0.0000    
       ELAPSED TOTAL CPU TIME (SEC) =   0.0000    
       ELAPSED WALLCLOCK TIME (SEC) =          0

               CONVERGENCE CHECKS FOR EQUILIBRIUM ITERATION     1


 AVERAGE FORCE                       11.0       TIME AVG. FORCE        6.93    
 LARGEST RESIDUAL FORCE             3.919E-12   AT NODE       1516   DOF  2
   INSTANCE: LUG-1                                                                           
 LARGEST INCREMENT OF DISP.        -4.220E-06   AT NODE       1610   DOF  2
   INSTANCE: LUG-1                                                                           
 LARGEST CORRECTION TO DISP.        9.295E-19   AT NODE       1604   DOF  3
   INSTANCE: LUG-1                                                                           
          THE FORCE     EQUILIBRIUM RESPONSE WAS LINEAR IN THIS INCREMENT
          TIME INCREMENT MAY NOW INCREASE TO     1.00    
          TIME INCREMENT REDUCED TO   1.000E-02 TO MEET NEXT OUTPUT TIME POINT

 ITERATION SUMMARY FOR THE INCREMENT:   1 TOTAL ITERATIONS, OF WHICH
   0 ARE SEVERE DISCONTINUITY ITERATIONS AND  1 ARE EQUILIBRIUM ITERATIONS.

 TIME INCREMENT COMPLETED  1.000E-02,  FRACTION OF STEP COMPLETED  3.000E-02
 STEP TIME COMPLETED       3.000E-02,  TOTAL TIME COMPLETED        3.000E-02


  INCREMENT     4 STARTS. ATTEMPT NUMBER  1, TIME INCREMENT  1.000E-02

  NUMBER OF EQUATIONS =     5457     NUMBER OF FLOATING PT. OPERATIONS =  4.55E+08

     CHECK POINT   START OF SOLVER    

     CHECK POINT  END OF SOLVER       

       ELAPSED USER TIME (SEC)      =  0.10000    
       ELAPSED SYSTEM TIME (SEC)    =   0.0000    
       ELAPSED TOTAL CPU TIME (SEC) =  0.10000    
       ELAPSED WALLCLOCK TIME (SEC) =          0

               CONVERGENCE CHECKS FOR EQUILIBRIUM ITERATION     1


 AVERAGE FORCE                       14.7       TIME AVG. FORCE        8.86    
 LARGEST RESIDUAL FORCE             4.383E-12   AT NODE       1459   DOF  2
   INSTANCE: LUG-1                                                                           
 LARGEST INCREMENT OF DISP.        -4.220E-06   AT NODE       1610   DOF  2
   INSTANCE: LUG-1                                                                           
 LARGEST CORRECTION TO DISP.       -1.157E-20   AT NODE         20   DOF  2
   INSTANCE: LUG-1                                                                           
          THE FORCE     EQUILIBRIUM RESPONSE WAS LINEAR IN THIS INCREMENT
          TIME INCREMENT MAY NOW INCREASE TO     1.00    
          TIME INCREMENT REDUCED TO   1.000E-02 TO MEET NEXT OUTPUT TIME POINT

 ITERATION SUMMARY FOR THE INCREMENT:   1 TOTAL ITERATIONS, OF WHICH
   0 ARE SEVERE DISCONTINUITY ITERATIONS AND  1 ARE EQUILIBRIUM ITERATIONS.

 TIME INCREMENT COMPLETED  1.000E-02,  FRACTION OF STEP COMPLETED  4.000E-02
 STEP TIME COMPLETED       4.000E-02,  TOTAL TIME COMPLETED        4.000E-02


  INCREMENT     5 STARTS. ATTEMPT NUMBER  1, TIME INCREMENT  1.000E-02

  NUMBER OF EQUATIONS =     5457     NUMBER OF FLOATING PT. OPERATIONS =  4.55E+08

     CHECK POINT   START OF SOLVER    

     CHECK POINT  END OF SOLVER       

       ELAPSED USER TIME (SEC)      =   0.0000    
       ELAPSED SYSTEM TIME (SEC)    =   0.0000    
       ELAPSED TOTAL CPU TIME (SEC) =   0.0000    
       ELAPSED WALLCLOCK TIME (SEC) =          0

               CONVERGENCE CHECKS FOR EQUILIBRIUM ITERATION     1


 AVERAGE FORCE                       18.3       TIME AVG. FORCE        10.8    
 LARGEST RESIDUAL FORCE            -3.659E-12   AT NODE       1472   DOF  2
   INSTANCE: LUG-1                                                                           
 LARGEST INCREMENT OF DISP.        -4.220E-06   AT NODE       1610   DOF  2
   INSTANCE: LUG-1                                                                           
 LARGEST CORRECTION TO DISP.        7.871E-21   AT NODE        129   DOF  2
   INSTANCE: LUG-1                                                                           
          THE FORCE     EQUILIBRIUM RESPONSE WAS LINEAR IN THIS INCREMENT
          TIME INCREMENT MAY NOW INCREASE TO     1.00    
          TIME INCREMENT REDUCED TO   1.000E-02 TO MEET NEXT OUTPUT TIME POINT

 ITERATION SUMMARY FOR THE INCREMENT:   1 TOTAL ITERATIONS, OF WHICH
   0 ARE SEVERE DISCONTINUITY ITERATIONS AND  1 ARE EQUILIBRIUM ITERATIONS.

 TIME INCREMENT COMPLETED  1.000E-02,  FRACTION OF STEP COMPLETED  5.000E-02
 STEP TIME COMPLETED       5.000E-02,  TOTAL TIME COMPLETED        5.000E-02


  INCREMENT     6 STARTS. ATTEMPT NUMBER  1, TIME INCREMENT  1.000E-02

  NUMBER OF EQUATIONS =     5457     NUMBER OF FLOATING PT. OPERATIONS =  4.55E+08

     CHECK POINT   START OF SOLVER    

     CHECK POINT  END OF SOLVER       

       ELAPSED USER TIME (SEC)      =   0.0000    
       ELAPSED SYSTEM TIME (SEC)    =   0.0000    
       ELAPSED TOTAL CPU TIME (SEC) =   0.0000    
       ELAPSED WALLCLOCK TIME (SEC) =          0

               CONVERGENCE CHECKS FOR EQUILIBRIUM ITERATION     1


 AVERAGE FORCE                       22.0       TIME AVG. FORCE        12.6    
 LARGEST RESIDUAL FORCE            -5.159E-12   AT NODE       1532   DOF  2
   INSTANCE: LUG-1                                                                           
 LARGEST INCREMENT OF DISP.        -4.220E-06   AT NODE       1610   DOF  2
   INSTANCE: LUG-1                                                                           
 LARGEST CORRECTION TO DISP.        1.838E-20   AT NODE        119   DOF  2
   INSTANCE: LUG-1                                                                           
          THE FORCE     EQUILIBRIUM RESPONSE WAS LINEAR IN THIS INCREMENT
          TIME INCREMENT MAY NOW INCREASE TO     1.00    
          TIME INCREMENT REDUCED TO   1.000E-02 TO MEET NEXT OUTPUT TIME POINT

 ITERATION SUMMARY FOR THE INCREMENT:   1 TOTAL ITERATIONS, OF WHICH
   0 ARE SEVERE DISCONTINUITY ITERATIONS AND  1 ARE EQUILIBRIUM ITERATIONS.

 TIME INCREMENT COMPLETED  1.000E-02,  FRACTION OF STEP COMPLETED  6.000E-02
 STEP TIME COMPLETED       6.000E-02,  TOTAL TIME COMPLETED        6.000E-02


  INCREMENT     7 STARTS. ATTEMPT NUMBER  1, TIME INCREMENT  1.000E-02

  NUMBER OF EQUATIONS =     5457     NUMBER OF FLOATING PT. OPERATIONS =  4.55E+08

     CHECK POINT   START OF SOLVER    

     CHECK POINT  END OF SOLVER       

       ELAPSED USER TIME (SEC)      =  0.10000    
       ELAPSED SYSTEM TIME (SEC)    =   0.0000    
       ELAPSED TOTAL CPU TIME (SEC) =  0.10000    
       ELAPSED WALLCLOCK TIME (SEC) =          0

               CONVERGENCE CHECKS FOR EQUILIBRIUM ITERATION     1


 AVERAGE FORCE                       25.7       TIME AVG. FORCE        14.5    
 LARGEST RESIDUAL FORCE             3.887E-12   AT NODE       1508   DOF  2
   INSTANCE: LUG-1                                                                           
 LARGEST INCREMENT OF DISP.        -4.220E-06   AT NODE       1610   DOF  2
   INSTANCE: LUG-1                                                                           
 LARGEST CORRECTION TO DISP.       -2.418E-20   AT NODE       1589   DOF  2
   INSTANCE: LUG-1                                                                           
          THE FORCE     EQUILIBRIUM RESPONSE WAS LINEAR IN THIS INCREMENT
          TIME INCREMENT MAY NOW INCREASE TO     1.00    
          TIME INCREMENT REDUCED TO   1.000E-02 TO MEET NEXT OUTPUT TIME POINT

 ITERATION SUMMARY FOR THE INCREMENT:   1 TOTAL ITERATIONS, OF WHICH
   0 ARE SEVERE DISCONTINUITY ITERATIONS AND  1 ARE EQUILIBRIUM ITERATIONS.

 TIME INCREMENT COMPLETED  1.000E-02,  FRACTION OF STEP COMPLETED  7.000E-02
 STEP TIME COMPLETED       7.000E-02,  TOTAL TIME COMPLETED        7.000E-02


  INCREMENT     8 STARTS. ATTEMPT NUMBER  1, TIME INCREMENT  1.000E-02

  NUMBER OF EQUATIONS =     5457     NUMBER OF FLOATING PT. OPERATIONS =  4.55E+08

     CHECK POINT   START OF SOLVER    

     CHECK POINT  END OF SOLVER       

       ELAPSED USER TIME (SEC)      =   0.0000    
       ELAPSED SYSTEM TIME (SEC)    =   0.0000    
       ELAPSED TOTAL CPU TIME (SEC) =   0.0000    
       ELAPSED WALLCLOCK TIME (SEC) =          0

               CONVERGENCE CHECKS FOR EQUILIBRIUM ITERATION     1


 AVERAGE FORCE                       29.3       TIME AVG. FORCE        16.3    
 LARGEST RESIDUAL FORCE            -4.082E-12   AT NODE        498   DOF  2
   INSTANCE: LUG-1                                                                           
 LARGEST INCREMENT OF DISP.        -4.220E-06   AT NODE       1610   DOF  2
   INSTANCE: LUG-1                                                                           
 LARGEST CORRECTION TO DISP.        1.231E-20   AT NODE        154   DOF  3
   INSTANCE: LUG-1                                                                           
          THE FORCE     EQUILIBRIUM RESPONSE WAS LINEAR IN THIS INCREMENT
          TIME INCREMENT MAY NOW INCREASE TO     1.00    
          TIME INCREMENT REDUCED TO   1.000E-02 TO MEET NEXT OUTPUT TIME POINT

 ITERATION SUMMARY FOR THE INCREMENT:   1 TOTAL ITERATIONS, OF WHICH
   0 ARE SEVERE DISCONTINUITY ITERATIONS AND  1 ARE EQUILIBRIUM ITERATIONS.

 TIME INCREMENT COMPLETED  1.000E-02,  FRACTION OF STEP COMPLETED  8.000E-02
 STEP TIME COMPLETED       8.000E-02,  TOTAL TIME COMPLETED        8.000E-02


  INCREMENT     9 STARTS. ATTEMPT NUMBER  1, TIME INCREMENT  1.000E-02

  NUMBER OF EQUATIONS =     5457     NUMBER OF FLOATING PT. OPERATIONS =  4.55E+08

     CHECK POINT   START OF SOLVER    

     CHECK POINT  END OF SOLVER       

       ELAPSED USER TIME (SEC)      =   0.0000    
       ELAPSED SYSTEM TIME (SEC)    =   0.0000    
       ELAPSED TOTAL CPU TIME (SEC) =   0.0000    
       ELAPSED WALLCLOCK TIME (SEC) =          0

               CONVERGENCE CHECKS FOR EQUILIBRIUM ITERATION     1


 AVERAGE FORCE                       33.0       TIME AVG. FORCE        18.2    
 LARGEST RESIDUAL FORCE             3.077E-12   AT NODE       1464   DOF  2
   INSTANCE: LUG-1                                                                           
 LARGEST INCREMENT OF DISP.        -4.220E-06   AT NODE       1610   DOF  2
   INSTANCE: LUG-1                                                                           
 LARGEST CORRECTION TO DISP.       -1.924E-20   AT NODE        370   DOF  3
   INSTANCE: LUG-1                                                                           
          THE FORCE     EQUILIBRIUM RESPONSE WAS LINEAR IN THIS INCREMENT
          TIME INCREMENT MAY NOW INCREASE TO     1.00    
          TIME INCREMENT REDUCED TO   1.000E-02 TO MEET NEXT OUTPUT TIME POINT

 ITERATION SUMMARY FOR THE INCREMENT:   1 TOTAL ITERATIONS, OF WHICH
   0 ARE SEVERE DISCONTINUITY ITERATIONS AND  1 ARE EQUILIBRIUM ITERATIONS.

 TIME INCREMENT COMPLETED  1.000E-02,  FRACTION OF STEP COMPLETED  9.000E-02
 STEP TIME COMPLETED       9.000E-02,  TOTAL TIME COMPLETED        9.000E-02


  INCREMENT    10 STARTS. ATTEMPT NUMBER  1, TIME INCREMENT  1.000E-02

  NUMBER OF EQUATIONS =     5457     NUMBER OF FLOATING PT. OPERATIONS =  4.55E+08

     CHECK POINT   START OF SOLVER    

     CHECK POINT  END OF SOLVER       

       ELAPSED USER TIME (SEC)      =  0.10000    
       ELAPSED SYSTEM TIME (SEC)    =   0.0000    
       ELAPSED TOTAL CPU TIME (SEC) =  0.10000    
       ELAPSED WALLCLOCK TIME (SEC) =          0

               CONVERGENCE CHECKS FOR EQUILIBRIUM ITERATION     1


 AVERAGE FORCE                       36.7       TIME AVG. FORCE        20.0    
 LARGEST RESIDUAL FORCE             5.823E-12   AT NODE       1576   DOF  2
   INSTANCE: LUG-1                                                                           
 LARGEST INCREMENT OF DISP.        -4.220E-06   AT NODE       1610   DOF  2
   INSTANCE: LUG-1                                                                           
 LARGEST CORRECTION TO DISP.        2.485E-20   AT NODE        370   DOF  3
   INSTANCE: LUG-1                                                                           
          THE FORCE     EQUILIBRIUM RESPONSE WAS LINEAR IN THIS INCREMENT
          TIME INCREMENT MAY NOW INCREASE TO     1.00    
          TIME INCREMENT REDUCED TO   1.000E-02 TO MEET NEXT OUTPUT TIME POINT

 ITERATION SUMMARY FOR THE INCREMENT:   1 TOTAL ITERATIONS, OF WHICH
   0 ARE SEVERE DISCONTINUITY ITERATIONS AND  1 ARE EQUILIBRIUM ITERATIONS.

 TIME INCREMENT COMPLETED  1.000E-02,  FRACTION OF STEP COMPLETED  0.100    
 STEP TIME COMPLETED       0.100    ,  TOTAL TIME COMPLETED        0.100    


  INCREMENT    11 STARTS. ATTEMPT NUMBER  1, TIME INCREMENT  1.000E-02

  NUMBER OF EQUATIONS =     5457     NUMBER OF FLOATING PT. OPERATIONS =  4.55E+08

     CHECK POINT   START OF SOLVER    

     CHECK POINT  END OF SOLVER       

       ELAPSED USER TIME (SEC)      =   0.0000    
       ELAPSED SYSTEM TIME (SEC)    =   0.0000    
       ELAPSED TOTAL CPU TIME (SEC) =   0.0000    
       ELAPSED WALLCLOCK TIME (SEC) =          0

               CONVERGENCE CHECKS FOR EQUILIBRIUM ITERATION     1


 AVERAGE FORCE                       40.3       TIME AVG. FORCE        21.9    
 LARGEST RESIDUAL FORCE            -4.729E-12   AT NODE       1468   DOF  2
   INSTANCE: LUG-1                                                                           
 LARGEST INCREMENT OF DISP.        -4.220E-06   AT NODE       1610   DOF  2
   INSTANCE: LUG-1                                                                           
 LARGEST CORRECTION TO DISP.       -2.117E-20   AT NODE        149   DOF  3
   INSTANCE: LUG-1                                                                           
          THE FORCE     EQUILIBRIUM RESPONSE WAS LINEAR IN THIS INCREMENT
          TIME INCREMENT MAY NOW INCREASE TO     1.00    
          TIME INCREMENT REDUCED TO   1.000E-02 TO MEET NEXT OUTPUT TIME POINT

 ITERATION SUMMARY FOR THE INCREMENT:   1 TOTAL ITERATIONS, OF WHICH
   0 ARE SEVERE DISCONTINUITY ITERATIONS AND  1 ARE EQUILIBRIUM ITERATIONS.

 TIME INCREMENT COMPLETED  1.000E-02,  FRACTION OF STEP COMPLETED  0.110    
 STEP TIME COMPLETED       0.110    ,  TOTAL TIME COMPLETED        0.110    


  INCREMENT    12 STARTS. ATTEMPT NUMBER  1, TIME INCREMENT  1.000E-02

  NUMBER OF EQUATIONS =     5457     NUMBER OF FLOATING PT. OPERATIONS =  4.55E+08

     CHECK POINT   START OF SOLVER    

     CHECK POINT  END OF SOLVER       

       ELAPSED USER TIME (SEC)      =   0.0000    
       ELAPSED SYSTEM TIME (SEC)    =   0.0000    
       ELAPSED TOTAL CPU TIME (SEC) =   0.0000    
       ELAPSED WALLCLOCK TIME (SEC) =          0

               CONVERGENCE CHECKS FOR EQUILIBRIUM ITERATION     1


 AVERAGE FORCE                       44.0       TIME AVG. FORCE        23.7    
 LARGEST RESIDUAL FORCE            -3.450E-12   AT NODE        499   DOF  2
   INSTANCE: LUG-1                                                                           
 LARGEST INCREMENT OF DISP.        -4.220E-06   AT NODE       1610   DOF  2
   INSTANCE: LUG-1                                                                           
 LARGEST CORRECTION TO DISP.       -1.676E-20   AT NODE       1495   DOF  2
   INSTANCE: LUG-1                                                                           
          THE FORCE     EQUILIBRIUM RESPONSE WAS LINEAR IN THIS INCREMENT
          TIME INCREMENT MAY NOW INCREASE TO     1.00    
          TIME INCREMENT REDUCED TO   1.000E-02 TO MEET NEXT OUTPUT TIME POINT

 ITERATION SUMMARY FOR THE INCREMENT:   1 TOTAL ITERATIONS, OF WHICH
   0 ARE SEVERE DISCONTINUITY ITERATIONS AND  1 ARE EQUILIBRIUM ITERATIONS.

 TIME INCREMENT COMPLETED  1.000E-02,  FRACTION OF STEP COMPLETED  0.120    
 STEP TIME COMPLETED       0.120    ,  TOTAL TIME COMPLETED        0.120    


  INCREMENT    13 STARTS. ATTEMPT NUMBER  1, TIME INCREMENT  1.000E-02

  NUMBER OF EQUATIONS =     5457     NUMBER OF FLOATING PT. OPERATIONS =  4.55E+08

     CHECK POINT   START OF SOLVER    

     CHECK POINT  END OF SOLVER       

       ELAPSED USER TIME (SEC)      =   0.0000    
       ELAPSED SYSTEM TIME (SEC)    =   0.0000    
       ELAPSED TOTAL CPU TIME (SEC) =   0.0000    
       ELAPSED WALLCLOCK TIME (SEC) =          0

               CONVERGENCE CHECKS FOR EQUILIBRIUM ITERATION     1


 AVERAGE FORCE                       47.7       TIME AVG. FORCE        25.6    
 LARGEST RESIDUAL FORCE             3.340E-12   AT NODE       1591   DOF  2
   INSTANCE: LUG-1                                                                           
 LARGEST INCREMENT OF DISP.        -4.220E-06   AT NODE       1610   DOF  2
   INSTANCE: LUG-1                                                                           
 LARGEST CORRECTION TO DISP.        5.321E-20   AT NODE       1610   DOF  2
   INSTANCE: LUG-1                                                                           
          THE FORCE     EQUILIBRIUM RESPONSE WAS LINEAR IN THIS INCREMENT
          TIME INCREMENT MAY NOW INCREASE TO     1.00    
          TIME INCREMENT REDUCED TO   1.000E-02 TO MEET NEXT OUTPUT TIME POINT

 ITERATION SUMMARY FOR THE INCREMENT:   1 TOTAL ITERATIONS, OF WHICH
   0 ARE SEVERE DISCONTINUITY ITERATIONS AND  1 ARE EQUILIBRIUM ITERATIONS.

 TIME INCREMENT COMPLETED  1.000E-02,  FRACTION OF STEP COMPLETED  0.130    
 STEP TIME COMPLETED       0.130    ,  TOTAL TIME COMPLETED        0.130    


  INCREMENT    14 STARTS. ATTEMPT NUMBER  1, TIME INCREMENT  1.000E-02

  NUMBER OF EQUATIONS =     5457     NUMBER OF FLOATING PT. OPERATIONS =  4.55E+08

     CHECK POINT   START OF SOLVER    

     CHECK POINT  END OF SOLVER       

       ELAPSED USER TIME (SEC)      =  0.10000    
       ELAPSED SYSTEM TIME (SEC)    =   0.0000    
       ELAPSED TOTAL CPU TIME (SEC) =  0.10000    
       ELAPSED WALLCLOCK TIME (SEC) =          0

               CONVERGENCE CHECKS FOR EQUILIBRIUM ITERATION     1


 AVERAGE FORCE                       51.3       TIME AVG. FORCE        27.4    
 LARGEST RESIDUAL FORCE            -3.229E-12   AT NODE        493   DOF  2
   INSTANCE: LUG-1                                                                           
 LARGEST INCREMENT OF DISP.        -4.220E-06   AT NODE       1610   DOF  2
   INSTANCE: LUG-1                                                                           
 LARGEST CORRECTION TO DISP.       -1.244E-20   AT NODE        152   DOF  3
   INSTANCE: LUG-1                                                                           
          THE FORCE     EQUILIBRIUM RESPONSE WAS LINEAR IN THIS INCREMENT
          TIME INCREMENT MAY NOW INCREASE TO     1.00    
          TIME INCREMENT REDUCED TO   1.000E-02 TO MEET NEXT OUTPUT TIME POINT

 ITERATION SUMMARY FOR THE INCREMENT:   1 TOTAL ITERATIONS, OF WHICH
   0 ARE SEVERE DISCONTINUITY ITERATIONS AND  1 ARE EQUILIBRIUM ITERATIONS.

 TIME INCREMENT COMPLETED  1.000E-02,  FRACTION OF STEP COMPLETED  0.140    
 STEP TIME COMPLETED       0.140    ,  TOTAL TIME COMPLETED        0.140    


  INCREMENT    15 STARTS. ATTEMPT NUMBER  1, TIME INCREMENT  1.000E-02

  NUMBER OF EQUATIONS =     5457     NUMBER OF FLOATING PT. OPERATIONS =  4.55E+08

     CHECK POINT   START OF SOLVER    

     CHECK POINT  END OF SOLVER       

       ELAPSED USER TIME (SEC)      =   0.0000    
       ELAPSED SYSTEM TIME (SEC)    =   0.0000    
       ELAPSED TOTAL CPU TIME (SEC) =   0.0000    
       ELAPSED WALLCLOCK TIME (SEC) =          0

               CONVERGENCE CHECKS FOR EQUILIBRIUM ITERATION     1


 AVERAGE FORCE                       55.0       TIME AVG. FORCE        29.3    
 LARGEST RESIDUAL FORCE             5.247E-12   AT NODE       1453   DOF  2
   INSTANCE: LUG-1                                                                           
 LARGEST INCREMENT OF DISP.        -4.220E-06   AT NODE       1610   DOF  2
   INSTANCE: LUG-1                                                                           
 LARGEST CORRECTION TO DISP.       -6.694E-20   AT NODE        131   DOF  2
   INSTANCE: LUG-1                                                                           
          THE FORCE     EQUILIBRIUM RESPONSE WAS LINEAR IN THIS INCREMENT
          TIME INCREMENT MAY NOW INCREASE TO     1.00    
          TIME INCREMENT REDUCED TO   1.000E-02 TO MEET NEXT OUTPUT TIME POINT

 ITERATION SUMMARY FOR THE INCREMENT:   1 TOTAL ITERATIONS, OF WHICH
   0 ARE SEVERE DISCONTINUITY ITERATIONS AND  1 ARE EQUILIBRIUM ITERATIONS.

 TIME INCREMENT COMPLETED  1.000E-02,  FRACTION OF STEP COMPLETED  0.150    
 STEP TIME COMPLETED       0.150    ,  TOTAL TIME COMPLETED        0.150    


  INCREMENT    16 STARTS. ATTEMPT NUMBER  1, TIME INCREMENT  1.000E-02

  NUMBER OF EQUATIONS =     5457     NUMBER OF FLOATING PT. OPERATIONS =  4.55E+08

     CHECK POINT   START OF SOLVER    

     CHECK POINT  END OF SOLVER       

       ELAPSED USER TIME (SEC)      =  0.10000    
       ELAPSED SYSTEM TIME (SEC)    =   0.0000    
       ELAPSED TOTAL CPU TIME (SEC) =  0.10000    
       ELAPSED WALLCLOCK TIME (SEC) =          0

               CONVERGENCE CHECKS FOR EQUILIBRIUM ITERATION     1


 AVERAGE FORCE                       58.7       TIME AVG. FORCE        31.1    
 LARGEST RESIDUAL FORCE            -5.080E-12   AT NODE       1458   DOF  2
   INSTANCE: LUG-1                                                                           
 LARGEST INCREMENT OF DISP.        -4.220E-06   AT NODE       1610   DOF  2
   INSTANCE: LUG-1                                                                           
 LARGEST CORRECTION TO DISP.        6.026E-20   AT NODE       1477   DOF  2
   INSTANCE: LUG-1                                                                           
          THE FORCE     EQUILIBRIUM RESPONSE WAS LINEAR IN THIS INCREMENT
          TIME INCREMENT MAY NOW INCREASE TO     1.00    
          TIME INCREMENT REDUCED TO   1.000E-02 TO MEET NEXT OUTPUT TIME POINT

 ITERATION SUMMARY FOR THE INCREMENT:   1 TOTAL ITERATIONS, OF WHICH
   0 ARE SEVERE DISCONTINUITY ITERATIONS AND  1 ARE EQUILIBRIUM ITERATIONS.

 TIME INCREMENT COMPLETED  1.000E-02,  FRACTION OF STEP COMPLETED  0.160    
 STEP TIME COMPLETED       0.160    ,  TOTAL TIME COMPLETED        0.160    


  INCREMENT    17 STARTS. ATTEMPT NUMBER  1, TIME INCREMENT  1.000E-02

  NUMBER OF EQUATIONS =     5457     NUMBER OF FLOATING PT. OPERATIONS =  4.55E+08

     CHECK POINT   START OF SOLVER    

     CHECK POINT  END OF SOLVER       

       ELAPSED USER TIME (SEC)      =  0.10000    
       ELAPSED SYSTEM TIME (SEC)    =   0.0000    
       ELAPSED TOTAL CPU TIME (SEC) =  0.10000    
       ELAPSED WALLCLOCK TIME (SEC) =          1

               CONVERGENCE CHECKS FOR EQUILIBRIUM ITERATION     1


 AVERAGE FORCE                       62.3       TIME AVG. FORCE        32.9    
 LARGEST RESIDUAL FORCE             3.244E-12   AT NODE       1576   DOF  2
   INSTANCE: LUG-1                                                                           
 LARGEST INCREMENT OF DISP.        -4.220E-06   AT NODE       1610   DOF  2
   INSTANCE: LUG-1                                                                           
 LARGEST CORRECTION TO DISP.       -2.312E-20   AT NODE       1495   DOF  2
   INSTANCE: LUG-1                                                                           
          THE FORCE     EQUILIBRIUM RESPONSE WAS LINEAR IN THIS INCREMENT
          TIME INCREMENT MAY NOW INCREASE TO     1.00    
          TIME INCREMENT REDUCED TO   1.000E-02 TO MEET NEXT OUTPUT TIME POINT

 ITERATION SUMMARY FOR THE INCREMENT:   1 TOTAL ITERATIONS, OF WHICH
   0 ARE SEVERE DISCONTINUITY ITERATIONS AND  1 ARE EQUILIBRIUM ITERATIONS.

 TIME INCREMENT COMPLETED  1.000E-02,  FRACTION OF STEP COMPLETED  0.170    
 STEP TIME COMPLETED       0.170    ,  TOTAL TIME COMPLETED        0.170    


  INCREMENT    18 STARTS. ATTEMPT NUMBER  1, TIME INCREMENT  1.000E-02

  NUMBER OF EQUATIONS =     5457     NUMBER OF FLOATING PT. OPERATIONS =  4.55E+08

     CHECK POINT   START OF SOLVER    

     CHECK POINT  END OF SOLVER       

       ELAPSED USER TIME (SEC)      =  0.10000    
       ELAPSED SYSTEM TIME (SEC)    =   0.0000    
       ELAPSED TOTAL CPU TIME (SEC) =  0.10000    
       ELAPSED WALLCLOCK TIME (SEC) =          0

               CONVERGENCE CHECKS FOR EQUILIBRIUM ITERATION     1


 AVERAGE FORCE                       66.0       TIME AVG. FORCE        34.8    
 LARGEST RESIDUAL FORCE             3.602E-12   AT NODE       1479   DOF  2
   INSTANCE: LUG-1                                                                           
 LARGEST INCREMENT OF DISP.        -4.220E-06   AT NODE       1610   DOF  2
   INSTANCE: LUG-1                                                                           
 LARGEST CORRECTION TO DISP.       -2.073E-20   AT NODE       1599   DOF  3
   INSTANCE: LUG-1                                                                           
          THE FORCE     EQUILIBRIUM RESPONSE WAS LINEAR IN THIS INCREMENT
          TIME INCREMENT MAY NOW INCREASE TO     1.00    
          TIME INCREMENT REDUCED TO   1.000E-02 TO MEET NEXT OUTPUT TIME POINT

 ITERATION SUMMARY FOR THE INCREMENT:   1 TOTAL ITERATIONS, OF WHICH
   0 ARE SEVERE DISCONTINUITY ITERATIONS AND  1 ARE EQUILIBRIUM ITERATIONS.

 TIME INCREMENT COMPLETED  1.000E-02,  FRACTION OF STEP COMPLETED  0.180    
 STEP TIME COMPLETED       0.180    ,  TOTAL TIME COMPLETED        0.180    


  INCREMENT    19 STARTS. ATTEMPT NUMBER  1, TIME INCREMENT  1.000E-02

  NUMBER OF EQUATIONS =     5457     NUMBER OF FLOATING PT. OPERATIONS =  4.55E+08

     CHECK POINT   START OF SOLVER    

     CHECK POINT  END OF SOLVER       

       ELAPSED USER TIME (SEC)      =  0.10000    
       ELAPSED SYSTEM TIME (SEC)    =   0.0000    
       ELAPSED TOTAL CPU TIME (SEC) =  0.10000    
       ELAPSED WALLCLOCK TIME (SEC) =          0

               CONVERGENCE CHECKS FOR EQUILIBRIUM ITERATION     1


 AVERAGE FORCE                       69.7       TIME AVG. FORCE        36.6    
 LARGEST RESIDUAL FORCE            -5.315E-12   AT NODE       1451   DOF  2
   INSTANCE: LUG-1                                                                           
 LARGEST INCREMENT OF DISP.        -4.220E-06   AT NODE       1610   DOF  2
   INSTANCE: LUG-1                                                                           
 LARGEST CORRECTION TO DISP.        4.646E-20   AT NODE       1613   DOF  3
   INSTANCE: LUG-1                                                                           
          THE FORCE     EQUILIBRIUM RESPONSE WAS LINEAR IN THIS INCREMENT
          TIME INCREMENT MAY NOW INCREASE TO     1.00    
          TIME INCREMENT REDUCED TO   1.000E-02 TO MEET NEXT OUTPUT TIME POINT

 ITERATION SUMMARY FOR THE INCREMENT:   1 TOTAL ITERATIONS, OF WHICH
   0 ARE SEVERE DISCONTINUITY ITERATIONS AND  1 ARE EQUILIBRIUM ITERATIONS.

 TIME INCREMENT COMPLETED  1.000E-02,  FRACTION OF STEP COMPLETED  0.190    
 STEP TIME COMPLETED       0.190    ,  TOTAL TIME COMPLETED        0.190    


  INCREMENT    20 STARTS. ATTEMPT NUMBER  1, TIME INCREMENT  1.000E-02

  NUMBER OF EQUATIONS =     5457     NUMBER OF FLOATING PT. OPERATIONS =  4.55E+08

     CHECK POINT   START OF SOLVER    

     CHECK POINT  END OF SOLVER       

       ELAPSED USER TIME (SEC)      =   0.0000    
       ELAPSED SYSTEM TIME (SEC)    =   0.0000    
       ELAPSED TOTAL CPU TIME (SEC) =   0.0000    
       ELAPSED WALLCLOCK TIME (SEC) =          0

               CONVERGENCE CHECKS FOR EQUILIBRIUM ITERATION     1


 AVERAGE FORCE                       73.3       TIME AVG. FORCE        38.4    
 LARGEST RESIDUAL FORCE            -3.411E-12   AT NODE       1472   DOF  2
   INSTANCE: LUG-1                                                                           
 LARGEST INCREMENT OF DISP.        -4.220E-06   AT NODE       1610   DOF  2
   INSTANCE: LUG-1                                                                           
 LARGEST CORRECTION TO DISP.        4.596E-20   AT NODE       1495   DOF  2
   INSTANCE: LUG-1                                                                           
          THE FORCE     EQUILIBRIUM RESPONSE WAS LINEAR IN THIS INCREMENT
          TIME INCREMENT MAY NOW INCREASE TO     1.00    
          TIME INCREMENT REDUCED TO   1.000E-02 TO MEET NEXT OUTPUT TIME POINT

 ITERATION SUMMARY FOR THE INCREMENT:   1 TOTAL ITERATIONS, OF WHICH
   0 ARE SEVERE DISCONTINUITY ITERATIONS AND  1 ARE EQUILIBRIUM ITERATIONS.

 TIME INCREMENT COMPLETED  1.000E-02,  FRACTION OF STEP COMPLETED  0.200    
 STEP TIME COMPLETED       0.200    ,  TOTAL TIME COMPLETED        0.200    


  INCREMENT    21 STARTS. ATTEMPT NUMBER  1, TIME INCREMENT  1.000E-02

  NUMBER OF EQUATIONS =     5457     NUMBER OF FLOATING PT. OPERATIONS =  4.55E+08

     CHECK POINT   START OF SOLVER    

     CHECK POINT  END OF SOLVER       

       ELAPSED USER TIME (SEC)      =   0.0000    
       ELAPSED SYSTEM TIME (SEC)    =   0.0000    
       ELAPSED TOTAL CPU TIME (SEC) =   0.0000    
       ELAPSED WALLCLOCK TIME (SEC) =          0

               CONVERGENCE CHECKS FOR EQUILIBRIUM ITERATION     1


 AVERAGE FORCE                       77.0       TIME AVG. FORCE        40.3    
 LARGEST RESIDUAL FORCE             4.661E-12   AT NODE       1453   DOF  2
   INSTANCE: LUG-1                                                                           
 LARGEST INCREMENT OF DISP.        -4.220E-06   AT NODE       1610   DOF  2
   INSTANCE: LUG-1                                                                           
 LARGEST CORRECTION TO DISP.       -6.108E-20   AT NODE        131   DOF  2
   INSTANCE: LUG-1                                                                           
          THE FORCE     EQUILIBRIUM RESPONSE WAS LINEAR IN THIS INCREMENT
          TIME INCREMENT MAY NOW INCREASE TO     1.00    
          TIME INCREMENT REDUCED TO   1.000E-02 TO MEET NEXT OUTPUT TIME POINT

 ITERATION SUMMARY FOR THE INCREMENT:   1 TOTAL ITERATIONS, OF WHICH
   0 ARE SEVERE DISCONTINUITY ITERATIONS AND  1 ARE EQUILIBRIUM ITERATIONS.

 TIME INCREMENT COMPLETED  1.000E-02,  FRACTION OF STEP COMPLETED  0.210    
 STEP TIME COMPLETED       0.210    ,  TOTAL TIME COMPLETED        0.210    


  INCREMENT    22 STARTS. ATTEMPT NUMBER  1, TIME INCREMENT  1.000E-02

  NUMBER OF EQUATIONS =     5457     NUMBER OF FLOATING PT. OPERATIONS =  4.55E+08

     CHECK POINT   START OF SOLVER    

     CHECK POINT  END OF SOLVER       

       ELAPSED USER TIME (SEC)      =  0.10000    
       ELAPSED SYSTEM TIME (SEC)    =   0.0000    
       ELAPSED TOTAL CPU TIME (SEC) =  0.10000    
       ELAPSED WALLCLOCK TIME (SEC) =          0

               CONVERGENCE CHECKS FOR EQUILIBRIUM ITERATION     1


 AVERAGE FORCE                       80.7       TIME AVG. FORCE        42.1    
 LARGEST RESIDUAL FORCE             4.455E-12   AT NODE        501   DOF  2
   INSTANCE: LUG-1                                                                           
 LARGEST INCREMENT OF DISP.        -4.220E-06   AT NODE       1610   DOF  2
   INSTANCE: LUG-1                                                                           
 LARGEST CORRECTION TO DISP.        8.128E-20   AT NODE       1610   DOF  2
   INSTANCE: LUG-1                                                                           
          THE FORCE     EQUILIBRIUM RESPONSE WAS LINEAR IN THIS INCREMENT
          TIME INCREMENT MAY NOW INCREASE TO     1.00    
          TIME INCREMENT REDUCED TO   1.000E-02 TO MEET NEXT OUTPUT TIME POINT

 ITERATION SUMMARY FOR THE INCREMENT:   1 TOTAL ITERATIONS, OF WHICH
   0 ARE SEVERE DISCONTINUITY ITERATIONS AND  1 ARE EQUILIBRIUM ITERATIONS.

 TIME INCREMENT COMPLETED  1.000E-02,  FRACTION OF STEP COMPLETED  0.220    
 STEP TIME COMPLETED       0.220    ,  TOTAL TIME COMPLETED        0.220    


  INCREMENT    23 STARTS. ATTEMPT NUMBER  1, TIME INCREMENT  1.000E-02

  NUMBER OF EQUATIONS =     5457     NUMBER OF FLOATING PT. OPERATIONS =  4.55E+08

     CHECK POINT   START OF SOLVER    

     CHECK POINT  END OF SOLVER       

       ELAPSED USER TIME (SEC)      =   0.0000    
       ELAPSED SYSTEM TIME (SEC)    =   0.0000    
       ELAPSED TOTAL CPU TIME (SEC) =   0.0000    
       ELAPSED WALLCLOCK TIME (SEC) =          0

               CONVERGENCE CHECKS FOR EQUILIBRIUM ITERATION     1


 AVERAGE FORCE                       84.3       TIME AVG. FORCE        44.0    
 LARGEST RESIDUAL FORCE            -5.045E-12   AT NODE       1468   DOF  2
   INSTANCE: LUG-1                                                                           
 LARGEST INCREMENT OF DISP.        -4.220E-06   AT NODE       1610   DOF  2
   INSTANCE: LUG-1                                                                           
 LARGEST CORRECTION TO DISP.       -4.000E-20   AT NODE        154   DOF  2
   INSTANCE: LUG-1                                                                           
          THE FORCE     EQUILIBRIUM RESPONSE WAS LINEAR IN THIS INCREMENT
          TIME INCREMENT MAY NOW INCREASE TO     1.00    
          TIME INCREMENT REDUCED TO   1.000E-02 TO MEET NEXT OUTPUT TIME POINT

 ITERATION SUMMARY FOR THE INCREMENT:   1 TOTAL ITERATIONS, OF WHICH
   0 ARE SEVERE DISCONTINUITY ITERATIONS AND  1 ARE EQUILIBRIUM ITERATIONS.

 TIME INCREMENT COMPLETED  1.000E-02,  FRACTION OF STEP COMPLETED  0.230    
 STEP TIME COMPLETED       0.230    ,  TOTAL TIME COMPLETED        0.230    


  INCREMENT    24 STARTS. ATTEMPT NUMBER  1, TIME INCREMENT  1.000E-02

  NUMBER OF EQUATIONS =     5457     NUMBER OF FLOATING PT. OPERATIONS =  4.55E+08

     CHECK POINT   START OF SOLVER    

     CHECK POINT  END OF SOLVER       

       ELAPSED USER TIME (SEC)      =  0.10000    
       ELAPSED SYSTEM TIME (SEC)    =   0.0000    
       ELAPSED TOTAL CPU TIME (SEC) =  0.10000    
       ELAPSED WALLCLOCK TIME (SEC) =          0

               CONVERGENCE CHECKS FOR EQUILIBRIUM ITERATION     1


 AVERAGE FORCE                       88.0       TIME AVG. FORCE        45.8    
 LARGEST RESIDUAL FORCE             5.535E-12   AT NODE       1468   DOF  2
   INSTANCE: LUG-1                                                                           
 LARGEST INCREMENT OF DISP.        -4.220E-06   AT NODE       1610   DOF  2
   INSTANCE: LUG-1                                                                           
 LARGEST CORRECTION TO DISP.       -4.184E-20   AT NODE        130   DOF  2
   INSTANCE: LUG-1                                                                           
          THE FORCE     EQUILIBRIUM RESPONSE WAS LINEAR IN THIS INCREMENT
          TIME INCREMENT MAY NOW INCREASE TO     1.00    
          TIME INCREMENT REDUCED TO   1.000E-02 TO MEET NEXT OUTPUT TIME POINT

 ITERATION SUMMARY FOR THE INCREMENT:   1 TOTAL ITERATIONS, OF WHICH
   0 ARE SEVERE DISCONTINUITY ITERATIONS AND  1 ARE EQUILIBRIUM ITERATIONS.

 TIME INCREMENT COMPLETED  1.000E-02,  FRACTION OF STEP COMPLETED  0.240    
 STEP TIME COMPLETED       0.240    ,  TOTAL TIME COMPLETED        0.240    


  INCREMENT    25 STARTS. ATTEMPT NUMBER  1, TIME INCREMENT  1.000E-02

  NUMBER OF EQUATIONS =     5457     NUMBER OF FLOATING PT. OPERATIONS =  4.55E+08

     CHECK POINT   START OF SOLVER    

     CHECK POINT  END OF SOLVER       

       ELAPSED USER TIME (SEC)      =   0.0000    
       ELAPSED SYSTEM TIME (SEC)    =   0.0000    
       ELAPSED TOTAL CPU TIME (SEC) =   0.0000    
       ELAPSED WALLCLOCK TIME (SEC) =          0

               CONVERGENCE CHECKS FOR EQUILIBRIUM ITERATION     1


 AVERAGE FORCE                       91.7       TIME AVG. FORCE        47.6    
 LARGEST RESIDUAL FORCE            -4.512E-12   AT NODE       1576   DOF  2
   INSTANCE: LUG-1                                                                           
 LARGEST INCREMENT OF DISP.        -4.220E-06   AT NODE       1610   DOF  2
   INSTANCE: LUG-1                                                                           
 LARGEST CORRECTION TO DISP.        4.374E-20   AT NODE        154   DOF  2
   INSTANCE: LUG-1                                                                           
          THE FORCE     EQUILIBRIUM RESPONSE WAS LINEAR IN THIS INCREMENT
          TIME INCREMENT MAY NOW INCREASE TO     1.00    
          TIME INCREMENT REDUCED TO   1.000E-02 TO MEET NEXT OUTPUT TIME POINT

 ITERATION SUMMARY FOR THE INCREMENT:   1 TOTAL ITERATIONS, OF WHICH
   0 ARE SEVERE DISCONTINUITY ITERATIONS AND  1 ARE EQUILIBRIUM ITERATIONS.

 TIME INCREMENT COMPLETED  1.000E-02,  FRACTION OF STEP COMPLETED  0.250    
 STEP TIME COMPLETED       0.250    ,  TOTAL TIME COMPLETED        0.250    


  INCREMENT    26 STARTS. ATTEMPT NUMBER  1, TIME INCREMENT  1.000E-02

  NUMBER OF EQUATIONS =     5457     NUMBER OF FLOATING PT. OPERATIONS =  4.55E+08

     CHECK POINT   START OF SOLVER    

     CHECK POINT  END OF SOLVER       

       ELAPSED USER TIME (SEC)      =  0.10000    
       ELAPSED SYSTEM TIME (SEC)    =   0.0000    
       ELAPSED TOTAL CPU TIME (SEC) =  0.10000    
       ELAPSED WALLCLOCK TIME (SEC) =          0

               CONVERGENCE CHECKS FOR EQUILIBRIUM ITERATION     1


 AVERAGE FORCE                       95.3       TIME AVG. FORCE        49.5    
 LARGEST RESIDUAL FORCE            -4.366E-12   AT NODE       1459   DOF  2
   INSTANCE: LUG-1                                                                           
 LARGEST INCREMENT OF DISP.        -4.220E-06   AT NODE       1610   DOF  2
   INSTANCE: LUG-1                                                                           
 LARGEST CORRECTION TO DISP.        4.736E-20   AT NODE        133   DOF  2
   INSTANCE: LUG-1                                                                           
          THE FORCE     EQUILIBRIUM RESPONSE WAS LINEAR IN THIS INCREMENT
          TIME INCREMENT MAY NOW INCREASE TO     1.00    
          TIME INCREMENT REDUCED TO   1.000E-02 TO MEET NEXT OUTPUT TIME POINT

 ITERATION SUMMARY FOR THE INCREMENT:   1 TOTAL ITERATIONS, OF WHICH
   0 ARE SEVERE DISCONTINUITY ITERATIONS AND  1 ARE EQUILIBRIUM ITERATIONS.

 TIME INCREMENT COMPLETED  1.000E-02,  FRACTION OF STEP COMPLETED  0.260    
 STEP TIME COMPLETED       0.260    ,  TOTAL TIME COMPLETED        0.260    


  INCREMENT    27 STARTS. ATTEMPT NUMBER  1, TIME INCREMENT  1.000E-02

  NUMBER OF EQUATIONS =     5457     NUMBER OF FLOATING PT. OPERATIONS =  4.55E+08

     CHECK POINT   START OF SOLVER    

     CHECK POINT  END OF SOLVER       

       ELAPSED USER TIME (SEC)      =  0.10000    
       ELAPSED SYSTEM TIME (SEC)    =   0.0000    
       ELAPSED TOTAL CPU TIME (SEC) =  0.10000    
       ELAPSED WALLCLOCK TIME (SEC) =          0

               CONVERGENCE CHECKS FOR EQUILIBRIUM ITERATION     1


 AVERAGE FORCE                       99.0       TIME AVG. FORCE        51.3    
 LARGEST RESIDUAL FORCE             5.137E-12   AT NODE       1453   DOF  2
   INSTANCE: LUG-1                                                                           
 LARGEST INCREMENT OF DISP.        -4.220E-06   AT NODE       1610   DOF  2
   INSTANCE: LUG-1                                                                           
 LARGEST CORRECTION TO DISP.       -8.924E-20   AT NODE         19   DOF  2
   INSTANCE: LUG-1                                                                           
          THE FORCE     EQUILIBRIUM RESPONSE WAS LINEAR IN THIS INCREMENT
          TIME INCREMENT MAY NOW INCREASE TO     1.00    
          TIME INCREMENT REDUCED TO   1.000E-02 TO MEET NEXT OUTPUT TIME POINT

 ITERATION SUMMARY FOR THE INCREMENT:   1 TOTAL ITERATIONS, OF WHICH
   0 ARE SEVERE DISCONTINUITY ITERATIONS AND  1 ARE EQUILIBRIUM ITERATIONS.

 TIME INCREMENT COMPLETED  1.000E-02,  FRACTION OF STEP COMPLETED  0.270    
 STEP TIME COMPLETED       0.270    ,  TOTAL TIME COMPLETED        0.270    


  INCREMENT    28 STARTS. ATTEMPT NUMBER  1, TIME INCREMENT  1.000E-02

  NUMBER OF EQUATIONS =     5457     NUMBER OF FLOATING PT. OPERATIONS =  4.55E+08

     CHECK POINT   START OF SOLVER    

     CHECK POINT  END OF SOLVER       

       ELAPSED USER TIME (SEC)      =  0.10000    
       ELAPSED SYSTEM TIME (SEC)    =   0.0000    
       ELAPSED TOTAL CPU TIME (SEC) =  0.10000    
       ELAPSED WALLCLOCK TIME (SEC) =          0

               CONVERGENCE CHECKS FOR EQUILIBRIUM ITERATION     1


 AVERAGE FORCE                       103.       TIME AVG. FORCE        53.1    
 LARGEST RESIDUAL FORCE             6.175E-12   AT NODE       1582   DOF  2
   INSTANCE: LUG-1                                                                           
 LARGEST INCREMENT OF DISP.        -4.220E-06   AT NODE       1610   DOF  2
   INSTANCE: LUG-1                                                                           
 LARGEST CORRECTION TO DISP.       -1.943E-20   AT NODE       1492   DOF  3
   INSTANCE: LUG-1                                                                           
          THE FORCE     EQUILIBRIUM RESPONSE WAS LINEAR IN THIS INCREMENT
          TIME INCREMENT MAY NOW INCREASE TO     1.00    
          TIME INCREMENT REDUCED TO   1.000E-02 TO MEET NEXT OUTPUT TIME POINT

 ITERATION SUMMARY FOR THE INCREMENT:   1 TOTAL ITERATIONS, OF WHICH
   0 ARE SEVERE DISCONTINUITY ITERATIONS AND  1 ARE EQUILIBRIUM ITERATIONS.

 TIME INCREMENT COMPLETED  1.000E-02,  FRACTION OF STEP COMPLETED  0.280    
 STEP TIME COMPLETED       0.280    ,  TOTAL TIME COMPLETED        0.280    


  INCREMENT    29 STARTS. ATTEMPT NUMBER  1, TIME INCREMENT  1.000E-02

  NUMBER OF EQUATIONS =     5457     NUMBER OF FLOATING PT. OPERATIONS =  4.55E+08

     CHECK POINT   START OF SOLVER    

     CHECK POINT  END OF SOLVER       

       ELAPSED USER TIME (SEC)      =   0.0000    
       ELAPSED SYSTEM TIME (SEC)    =   0.0000    
       ELAPSED TOTAL CPU TIME (SEC) =   0.0000    
       ELAPSED WALLCLOCK TIME (SEC) =          0

               CONVERGENCE CHECKS FOR EQUILIBRIUM ITERATION     1


 AVERAGE FORCE                       106.       TIME AVG. FORCE        55.0    
 LARGEST RESIDUAL FORCE            -3.666E-12   AT NODE       1598   DOF  2
   INSTANCE: LUG-1                                                                           
 LARGEST INCREMENT OF DISP.        -4.220E-06   AT NODE       1610   DOF  2
   INSTANCE: LUG-1                                                                           
 LARGEST CORRECTION TO DISP.        6.293E-20   AT NODE        130   DOF  2
   INSTANCE: LUG-1                                                                           
          THE FORCE     EQUILIBRIUM RESPONSE WAS LINEAR IN THIS INCREMENT
          TIME INCREMENT MAY NOW INCREASE TO     1.00    
          TIME INCREMENT REDUCED TO   1.000E-02 TO MEET NEXT OUTPUT TIME POINT

 ITERATION SUMMARY FOR THE INCREMENT:   1 TOTAL ITERATIONS, OF WHICH
   0 ARE SEVERE DISCONTINUITY ITERATIONS AND  1 ARE EQUILIBRIUM ITERATIONS.

 TIME INCREMENT COMPLETED  1.000E-02,  FRACTION OF STEP COMPLETED  0.290    
 STEP TIME COMPLETED       0.290    ,  TOTAL TIME COMPLETED        0.290    


  INCREMENT    30 STARTS. ATTEMPT NUMBER  1, TIME INCREMENT  1.000E-02

  NUMBER OF EQUATIONS =     5457     NUMBER OF FLOATING PT. OPERATIONS =  4.55E+08

     CHECK POINT   START OF SOLVER    

     CHECK POINT  END OF SOLVER       

       ELAPSED USER TIME (SEC)      =   0.0000    
       ELAPSED SYSTEM TIME (SEC)    =   0.0000    
       ELAPSED TOTAL CPU TIME (SEC) =   0.0000    
       ELAPSED WALLCLOCK TIME (SEC) =          0

               CONVERGENCE CHECKS FOR EQUILIBRIUM ITERATION     1


 AVERAGE FORCE                       110.       TIME AVG. FORCE        56.8    
 LARGEST RESIDUAL FORCE            -4.796E-12   AT NODE       1576   DOF  2
   INSTANCE: LUG-1                                                                           
 LARGEST INCREMENT OF DISP.        -4.220E-06   AT NODE       1610   DOF  2
   INSTANCE: LUG-1                                                                           
 LARGEST CORRECTION TO DISP.       -3.531E-20   AT NODE       1562   DOF  2
   INSTANCE: LUG-1                                                                           
          THE FORCE     EQUILIBRIUM RESPONSE WAS LINEAR IN THIS INCREMENT
          TIME INCREMENT MAY NOW INCREASE TO     1.00    
          TIME INCREMENT REDUCED TO   1.000E-02 TO MEET NEXT OUTPUT TIME POINT

 ITERATION SUMMARY FOR THE INCREMENT:   1 TOTAL ITERATIONS, OF WHICH
   0 ARE SEVERE DISCONTINUITY ITERATIONS AND  1 ARE EQUILIBRIUM ITERATIONS.

 TIME INCREMENT COMPLETED  1.000E-02,  FRACTION OF STEP COMPLETED  0.300    
 STEP TIME COMPLETED       0.300    ,  TOTAL TIME COMPLETED        0.300    


  INCREMENT    31 STARTS. ATTEMPT NUMBER  1, TIME INCREMENT  1.000E-02

  NUMBER OF EQUATIONS =     5457     NUMBER OF FLOATING PT. OPERATIONS =  4.55E+08

     CHECK POINT   START OF SOLVER    

     CHECK POINT  END OF SOLVER       

       ELAPSED USER TIME (SEC)      =   0.0000    
       ELAPSED SYSTEM TIME (SEC)    =   0.0000    
       ELAPSED TOTAL CPU TIME (SEC) =   0.0000    
       ELAPSED WALLCLOCK TIME (SEC) =          0

               CONVERGENCE CHECKS FOR EQUILIBRIUM ITERATION     1


 AVERAGE FORCE                       114.       TIME AVG. FORCE        58.6    
 LARGEST RESIDUAL FORCE            -3.944E-12   AT NODE        503   DOF  2
   INSTANCE: LUG-1                                                                           
 LARGEST INCREMENT OF DISP.        -4.220E-06   AT NODE       1610   DOF  2
   INSTANCE: LUG-1                                                                           
 LARGEST CORRECTION TO DISP.        2.969E-20   AT NODE        149   DOF  2
   INSTANCE: LUG-1                                                                           
          THE FORCE     EQUILIBRIUM RESPONSE WAS LINEAR IN THIS INCREMENT
          TIME INCREMENT MAY NOW INCREASE TO     1.00    
          TIME INCREMENT REDUCED TO   1.000E-02 TO MEET NEXT OUTPUT TIME POINT

 ITERATION SUMMARY FOR THE INCREMENT:   1 TOTAL ITERATIONS, OF WHICH
   0 ARE SEVERE DISCONTINUITY ITERATIONS AND  1 ARE EQUILIBRIUM ITERATIONS.

 TIME INCREMENT COMPLETED  1.000E-02,  FRACTION OF STEP COMPLETED  0.310    
 STEP TIME COMPLETED       0.310    ,  TOTAL TIME COMPLETED        0.310    


  INCREMENT    32 STARTS. ATTEMPT NUMBER  1, TIME INCREMENT  1.000E-02

  NUMBER OF EQUATIONS =     5457     NUMBER OF FLOATING PT. OPERATIONS =  4.55E+08

     CHECK POINT   START OF SOLVER    

     CHECK POINT  END OF SOLVER       

       ELAPSED USER TIME (SEC)      =  0.10000    
       ELAPSED SYSTEM TIME (SEC)    =   0.0000    
       ELAPSED TOTAL CPU TIME (SEC) =  0.10000    
       ELAPSED WALLCLOCK TIME (SEC) =          0

               CONVERGENCE CHECKS FOR EQUILIBRIUM ITERATION     1


 AVERAGE FORCE                       117.       TIME AVG. FORCE        60.5    
 LARGEST RESIDUAL FORCE             5.031E-12   AT NODE       1383   DOF  2
   INSTANCE: LUG-1                                                                           
 LARGEST INCREMENT OF DISP.        -4.220E-06   AT NODE       1610   DOF  2
   INSTANCE: LUG-1                                                                           
 LARGEST CORRECTION TO DISP.       -1.041E-19   AT NODE        149   DOF  2
   INSTANCE: LUG-1                                                                           
          THE FORCE     EQUILIBRIUM RESPONSE WAS LINEAR IN THIS INCREMENT
          TIME INCREMENT MAY NOW INCREASE TO     1.00    
          TIME INCREMENT REDUCED TO   1.000E-02 TO MEET NEXT OUTPUT TIME POINT

 ITERATION SUMMARY FOR THE INCREMENT:   1 TOTAL ITERATIONS, OF WHICH
   0 ARE SEVERE DISCONTINUITY ITERATIONS AND  1 ARE EQUILIBRIUM ITERATIONS.

 TIME INCREMENT COMPLETED  1.000E-02,  FRACTION OF STEP COMPLETED  0.320    
 STEP TIME COMPLETED       0.320    ,  TOTAL TIME COMPLETED        0.320    


  INCREMENT    33 STARTS. ATTEMPT NUMBER  1, TIME INCREMENT  1.000E-02

  NUMBER OF EQUATIONS =     5457     NUMBER OF FLOATING PT. OPERATIONS =  4.55E+08

     CHECK POINT   START OF SOLVER    

     CHECK POINT  END OF SOLVER       

       ELAPSED USER TIME (SEC)      =   0.0000    
       ELAPSED SYSTEM TIME (SEC)    =   0.0000    
       ELAPSED TOTAL CPU TIME (SEC) =   0.0000    
       ELAPSED WALLCLOCK TIME (SEC) =          0

               CONVERGENCE CHECKS FOR EQUILIBRIUM ITERATION     1


 AVERAGE FORCE                       121.       TIME AVG. FORCE        62.3    
 LARGEST RESIDUAL FORCE            -4.068E-12   AT NODE        504   DOF  2
   INSTANCE: LUG-1                                                                           
 LARGEST INCREMENT OF DISP.        -4.220E-06   AT NODE       1610   DOF  2
   INSTANCE: LUG-1                                                                           
 LARGEST CORRECTION TO DISP.        1.131E-19   AT NODE       1607   DOF  2
   INSTANCE: LUG-1                                                                           
          THE FORCE     EQUILIBRIUM RESPONSE WAS LINEAR IN THIS INCREMENT
          TIME INCREMENT MAY NOW INCREASE TO     1.00    
          TIME INCREMENT REDUCED TO   1.000E-02 TO MEET NEXT OUTPUT TIME POINT

 ITERATION SUMMARY FOR THE INCREMENT:   1 TOTAL ITERATIONS, OF WHICH
   0 ARE SEVERE DISCONTINUITY ITERATIONS AND  1 ARE EQUILIBRIUM ITERATIONS.

 TIME INCREMENT COMPLETED  1.000E-02,  FRACTION OF STEP COMPLETED  0.330    
 STEP TIME COMPLETED       0.330    ,  TOTAL TIME COMPLETED        0.330    


  INCREMENT    34 STARTS. ATTEMPT NUMBER  1, TIME INCREMENT  1.000E-02

  NUMBER OF EQUATIONS =     5457     NUMBER OF FLOATING PT. OPERATIONS =  4.55E+08

     CHECK POINT   START OF SOLVER    

     CHECK POINT  END OF SOLVER       

       ELAPSED USER TIME (SEC)      =  0.10000    
       ELAPSED SYSTEM TIME (SEC)    =   0.0000    
       ELAPSED TOTAL CPU TIME (SEC) =  0.10000    
       ELAPSED WALLCLOCK TIME (SEC) =          0

               CONVERGENCE CHECKS FOR EQUILIBRIUM ITERATION     1


 AVERAGE FORCE                       125.       TIME AVG. FORCE        64.1    
 LARGEST RESIDUAL FORCE             3.908E-12   AT NODE       1453   DOF  2
   INSTANCE: LUG-1                                                                           
 LARGEST INCREMENT OF DISP.        -4.220E-06   AT NODE       1610   DOF  2
   INSTANCE: LUG-1                                                                           
 LARGEST CORRECTION TO DISP.       -2.562E-20   AT NODE        368   DOF  3
   INSTANCE: LUG-1                                                                           
          THE FORCE     EQUILIBRIUM RESPONSE WAS LINEAR IN THIS INCREMENT
          TIME INCREMENT MAY NOW INCREASE TO     1.00    
          TIME INCREMENT REDUCED TO   1.000E-02 TO MEET NEXT OUTPUT TIME POINT

 ITERATION SUMMARY FOR THE INCREMENT:   1 TOTAL ITERATIONS, OF WHICH
   0 ARE SEVERE DISCONTINUITY ITERATIONS AND  1 ARE EQUILIBRIUM ITERATIONS.

 TIME INCREMENT COMPLETED  1.000E-02,  FRACTION OF STEP COMPLETED  0.340    
 STEP TIME COMPLETED       0.340    ,  TOTAL TIME COMPLETED        0.340    


  INCREMENT    35 STARTS. ATTEMPT NUMBER  1, TIME INCREMENT  1.000E-02

  NUMBER OF EQUATIONS =     5457     NUMBER OF FLOATING PT. OPERATIONS =  4.55E+08

     CHECK POINT   START OF SOLVER    

     CHECK POINT  END OF SOLVER       

       ELAPSED USER TIME (SEC)      =   0.0000    
       ELAPSED SYSTEM TIME (SEC)    =  0.10000    
       ELAPSED TOTAL CPU TIME (SEC) =  0.10000    
       ELAPSED WALLCLOCK TIME (SEC) =          0

               CONVERGENCE CHECKS FOR EQUILIBRIUM ITERATION     1


 AVERAGE FORCE                       128.       TIME AVG. FORCE        66.0    
 LARGEST RESIDUAL FORCE            -3.681E-12   AT NODE       1468   DOF  2
   INSTANCE: LUG-1                                                                           
 LARGEST INCREMENT OF DISP.        -4.220E-06   AT NODE       1610   DOF  2
   INSTANCE: LUG-1                                                                           
 LARGEST CORRECTION TO DISP.       -5.719E-20   AT NODE         19   DOF  2
   INSTANCE: LUG-1                                                                           
          THE FORCE     EQUILIBRIUM RESPONSE WAS LINEAR IN THIS INCREMENT
          TIME INCREMENT MAY NOW INCREASE TO     1.00    
          TIME INCREMENT REDUCED TO   1.000E-02 TO MEET NEXT OUTPUT TIME POINT

 ITERATION SUMMARY FOR THE INCREMENT:   1 TOTAL ITERATIONS, OF WHICH
   0 ARE SEVERE DISCONTINUITY ITERATIONS AND  1 ARE EQUILIBRIUM ITERATIONS.

 TIME INCREMENT COMPLETED  1.000E-02,  FRACTION OF STEP COMPLETED  0.350    
 STEP TIME COMPLETED       0.350    ,  TOTAL TIME COMPLETED        0.350    


  INCREMENT    36 STARTS. ATTEMPT NUMBER  1, TIME INCREMENT  1.000E-02

  NUMBER OF EQUATIONS =     5457     NUMBER OF FLOATING PT. OPERATIONS =  4.55E+08

     CHECK POINT   START OF SOLVER    

     CHECK POINT  END OF SOLVER       

       ELAPSED USER TIME (SEC)      =   0.0000    
       ELAPSED SYSTEM TIME (SEC)    =   0.0000    
       ELAPSED TOTAL CPU TIME (SEC) =   0.0000    
       ELAPSED WALLCLOCK TIME (SEC) =          0

               CONVERGENCE CHECKS FOR EQUILIBRIUM ITERATION     1


 AVERAGE FORCE                       132.       TIME AVG. FORCE        67.8    
 LARGEST RESIDUAL FORCE             7.617E-12   AT NODE       1576   DOF  2
   INSTANCE: LUG-1                                                                           
 LARGEST INCREMENT OF DISP.        -4.220E-06   AT NODE       1610   DOF  2
   INSTANCE: LUG-1                                                                           
 LARGEST CORRECTION TO DISP.        4.647E-20   AT NODE        134   DOF  2
   INSTANCE: LUG-1                                                                           
          THE FORCE     EQUILIBRIUM RESPONSE WAS LINEAR IN THIS INCREMENT
          TIME INCREMENT MAY NOW INCREASE TO     1.00    
          TIME INCREMENT REDUCED TO   1.000E-02 TO MEET NEXT OUTPUT TIME POINT

 ITERATION SUMMARY FOR THE INCREMENT:   1 TOTAL ITERATIONS, OF WHICH
   0 ARE SEVERE DISCONTINUITY ITERATIONS AND  1 ARE EQUILIBRIUM ITERATIONS.

 TIME INCREMENT COMPLETED  1.000E-02,  FRACTION OF STEP COMPLETED  0.360    
 STEP TIME COMPLETED       0.360    ,  TOTAL TIME COMPLETED        0.360    


  INCREMENT    37 STARTS. ATTEMPT NUMBER  1, TIME INCREMENT  1.000E-02

  NUMBER OF EQUATIONS =     5457     NUMBER OF FLOATING PT. OPERATIONS =  4.55E+08

     CHECK POINT   START OF SOLVER    

     CHECK POINT  END OF SOLVER       

       ELAPSED USER TIME (SEC)      =   0.0000    
       ELAPSED SYSTEM TIME (SEC)    =   0.0000    
       ELAPSED TOTAL CPU TIME (SEC) =   0.0000    
       ELAPSED WALLCLOCK TIME (SEC) =          0

               CONVERGENCE CHECKS FOR EQUILIBRIUM ITERATION     1


 AVERAGE FORCE                       136.       TIME AVG. FORCE        69.6    
 LARGEST RESIDUAL FORCE             3.439E-12   AT NODE       1506   DOF  2
   INSTANCE: LUG-1                                                                           
 LARGEST INCREMENT OF DISP.        -4.220E-06   AT NODE       1610   DOF  2
   INSTANCE: LUG-1                                                                           
 LARGEST CORRECTION TO DISP.       -5.033E-20   AT NODE       1487   DOF  2
   INSTANCE: LUG-1                                                                           
          THE FORCE     EQUILIBRIUM RESPONSE WAS LINEAR IN THIS INCREMENT
          TIME INCREMENT MAY NOW INCREASE TO     1.00    
          TIME INCREMENT REDUCED TO   1.000E-02 TO MEET NEXT OUTPUT TIME POINT

 ITERATION SUMMARY FOR THE INCREMENT:   1 TOTAL ITERATIONS, OF WHICH
   0 ARE SEVERE DISCONTINUITY ITERATIONS AND  1 ARE EQUILIBRIUM ITERATIONS.

 TIME INCREMENT COMPLETED  1.000E-02,  FRACTION OF STEP COMPLETED  0.370    
 STEP TIME COMPLETED       0.370    ,  TOTAL TIME COMPLETED        0.370    


  INCREMENT    38 STARTS. ATTEMPT NUMBER  1, TIME INCREMENT  1.000E-02

  NUMBER OF EQUATIONS =     5457     NUMBER OF FLOATING PT. OPERATIONS =  4.55E+08

     CHECK POINT   START OF SOLVER    

     CHECK POINT  END OF SOLVER       

       ELAPSED USER TIME (SEC)      =   0.0000    
       ELAPSED SYSTEM TIME (SEC)    =   0.0000    
       ELAPSED TOTAL CPU TIME (SEC) =   0.0000    
       ELAPSED WALLCLOCK TIME (SEC) =          0

               CONVERGENCE CHECKS FOR EQUILIBRIUM ITERATION     1


 AVERAGE FORCE                       139.       TIME AVG. FORCE        71.5    
 LARGEST RESIDUAL FORCE             3.684E-12   AT NODE        497   DOF  2
   INSTANCE: LUG-1                                                                           
 LARGEST INCREMENT OF DISP.        -4.220E-06   AT NODE       1610   DOF  2
   INSTANCE: LUG-1                                                                           
 LARGEST CORRECTION TO DISP.        2.323E-20   AT NODE       1613   DOF  3
   INSTANCE: LUG-1                                                                           
          THE FORCE     EQUILIBRIUM RESPONSE WAS LINEAR IN THIS INCREMENT
          TIME INCREMENT MAY NOW INCREASE TO     1.00    
          TIME INCREMENT REDUCED TO   1.000E-02 TO MEET NEXT OUTPUT TIME POINT

 ITERATION SUMMARY FOR THE INCREMENT:   1 TOTAL ITERATIONS, OF WHICH
   0 ARE SEVERE DISCONTINUITY ITERATIONS AND  1 ARE EQUILIBRIUM ITERATIONS.

 TIME INCREMENT COMPLETED  1.000E-02,  FRACTION OF STEP COMPLETED  0.380    
 STEP TIME COMPLETED       0.380    ,  TOTAL TIME COMPLETED        0.380    


  INCREMENT    39 STARTS. ATTEMPT NUMBER  1, TIME INCREMENT  1.000E-02

  NUMBER OF EQUATIONS =     5457     NUMBER OF FLOATING PT. OPERATIONS =  4.55E+08

     CHECK POINT   START OF SOLVER    

     CHECK POINT  END OF SOLVER       

       ELAPSED USER TIME (SEC)      =   0.0000    
       ELAPSED SYSTEM TIME (SEC)    =   0.0000    
       ELAPSED TOTAL CPU TIME (SEC) =   0.0000    
       ELAPSED WALLCLOCK TIME (SEC) =          0

               CONVERGENCE CHECKS FOR EQUILIBRIUM ITERATION     1


 AVERAGE FORCE                       143.       TIME AVG. FORCE        73.3    
 LARGEST RESIDUAL FORCE             4.263E-12   AT NODE       1384   DOF  2
   INSTANCE: LUG-1                                                                           
 LARGEST INCREMENT OF DISP.        -4.220E-06   AT NODE       1610   DOF  2
   INSTANCE: LUG-1                                                                           
 LARGEST CORRECTION TO DISP.        5.720E-20   AT NODE       1607   DOF  2
   INSTANCE: LUG-1                                                                           
          THE FORCE     EQUILIBRIUM RESPONSE WAS LINEAR IN THIS INCREMENT
          TIME INCREMENT MAY NOW INCREASE TO     1.00    
          TIME INCREMENT REDUCED TO   1.000E-02 TO MEET NEXT OUTPUT TIME POINT

 ITERATION SUMMARY FOR THE INCREMENT:   1 TOTAL ITERATIONS, OF WHICH
   0 ARE SEVERE DISCONTINUITY ITERATIONS AND  1 ARE EQUILIBRIUM ITERATIONS.

 TIME INCREMENT COMPLETED  1.000E-02,  FRACTION OF STEP COMPLETED  0.390    
 STEP TIME COMPLETED       0.390    ,  TOTAL TIME COMPLETED        0.390    


  INCREMENT    40 STARTS. ATTEMPT NUMBER  1, TIME INCREMENT  1.000E-02

  NUMBER OF EQUATIONS =     5457     NUMBER OF FLOATING PT. OPERATIONS =  4.55E+08

     CHECK POINT   START OF SOLVER    

     CHECK POINT  END OF SOLVER       

       ELAPSED USER TIME (SEC)      =   0.0000    
       ELAPSED SYSTEM TIME (SEC)    =   0.0000    
       ELAPSED TOTAL CPU TIME (SEC) =   0.0000    
       ELAPSED WALLCLOCK TIME (SEC) =          1

               CONVERGENCE CHECKS FOR EQUILIBRIUM ITERATION     1


 AVERAGE FORCE                       147.       TIME AVG. FORCE        75.1    
 LARGEST RESIDUAL FORCE            -5.286E-12   AT NODE       1383   DOF  2
   INSTANCE: LUG-1                                                                           
 LARGEST INCREMENT OF DISP.        -4.220E-06   AT NODE       1610   DOF  2
   INSTANCE: LUG-1                                                                           
 LARGEST CORRECTION TO DISP.       -4.050E-20   AT NODE        153   DOF  3
   INSTANCE: LUG-1                                                                           
          THE FORCE     EQUILIBRIUM RESPONSE WAS LINEAR IN THIS INCREMENT
          TIME INCREMENT MAY NOW INCREASE TO     1.00    
          TIME INCREMENT REDUCED TO   1.000E-02 TO MEET NEXT OUTPUT TIME POINT

 ITERATION SUMMARY FOR THE INCREMENT:   1 TOTAL ITERATIONS, OF WHICH
   0 ARE SEVERE DISCONTINUITY ITERATIONS AND  1 ARE EQUILIBRIUM ITERATIONS.

 TIME INCREMENT COMPLETED  1.000E-02,  FRACTION OF STEP COMPLETED  0.400    
 STEP TIME COMPLETED       0.400    ,  TOTAL TIME COMPLETED        0.400    


  INCREMENT    41 STARTS. ATTEMPT NUMBER  1, TIME INCREMENT  1.000E-02

  NUMBER OF EQUATIONS =     5457     NUMBER OF FLOATING PT. OPERATIONS =  4.55E+08

     CHECK POINT   START OF SOLVER    

     CHECK POINT  END OF SOLVER       

       ELAPSED USER TIME (SEC)      =   0.0000    
       ELAPSED SYSTEM TIME (SEC)    =   0.0000    
       ELAPSED TOTAL CPU TIME (SEC) =   0.0000    
       ELAPSED WALLCLOCK TIME (SEC) =          0

               CONVERGENCE CHECKS FOR EQUILIBRIUM ITERATION     1


 AVERAGE FORCE                       150.       TIME AVG. FORCE        77.0    
 LARGEST RESIDUAL FORCE             4.832E-12   AT NODE       1592   DOF  2
   INSTANCE: LUG-1                                                                           
 LARGEST INCREMENT OF DISP.        -4.220E-06   AT NODE       1610   DOF  2
   INSTANCE: LUG-1                                                                           
 LARGEST CORRECTION TO DISP.        1.201E-19   AT NODE       1611   DOF  3
   INSTANCE: LUG-1                                                                           
          THE FORCE     EQUILIBRIUM RESPONSE WAS LINEAR IN THIS INCREMENT
          TIME INCREMENT MAY NOW INCREASE TO     1.00    
          TIME INCREMENT REDUCED TO   1.000E-02 TO MEET NEXT OUTPUT TIME POINT

 ITERATION SUMMARY FOR THE INCREMENT:   1 TOTAL ITERATIONS, OF WHICH
   0 ARE SEVERE DISCONTINUITY ITERATIONS AND  1 ARE EQUILIBRIUM ITERATIONS.

 TIME INCREMENT COMPLETED  1.000E-02,  FRACTION OF STEP COMPLETED  0.410    
 STEP TIME COMPLETED       0.410    ,  TOTAL TIME COMPLETED        0.410    


  INCREMENT    42 STARTS. ATTEMPT NUMBER  1, TIME INCREMENT  1.000E-02

  NUMBER OF EQUATIONS =     5457     NUMBER OF FLOATING PT. OPERATIONS =  4.55E+08

     CHECK POINT   START OF SOLVER    

     CHECK POINT  END OF SOLVER       

       ELAPSED USER TIME (SEC)      =   0.0000    
       ELAPSED SYSTEM TIME (SEC)    =   0.0000    
       ELAPSED TOTAL CPU TIME (SEC) =   0.0000    
       ELAPSED WALLCLOCK TIME (SEC) =          0

               CONVERGENCE CHECKS FOR EQUILIBRIUM ITERATION     1


 AVERAGE FORCE                       154.       TIME AVG. FORCE        78.8    
 LARGEST RESIDUAL FORCE            -3.254E-12   AT NODE       1576   DOF  2
   INSTANCE: LUG-1                                                                           
 LARGEST INCREMENT OF DISP.        -4.220E-06   AT NODE       1610   DOF  2
   INSTANCE: LUG-1                                                                           
 LARGEST CORRECTION TO DISP.       -1.262E-19   AT NODE        127   DOF  3
   INSTANCE: LUG-1                                                                           
          THE FORCE     EQUILIBRIUM RESPONSE WAS LINEAR IN THIS INCREMENT
          TIME INCREMENT MAY NOW INCREASE TO     1.00    
          TIME INCREMENT REDUCED TO   1.000E-02 TO MEET NEXT OUTPUT TIME POINT

 ITERATION SUMMARY FOR THE INCREMENT:   1 TOTAL ITERATIONS, OF WHICH
   0 ARE SEVERE DISCONTINUITY ITERATIONS AND  1 ARE EQUILIBRIUM ITERATIONS.

 TIME INCREMENT COMPLETED  1.000E-02,  FRACTION OF STEP COMPLETED  0.420    
 STEP TIME COMPLETED       0.420    ,  TOTAL TIME COMPLETED        0.420    


  INCREMENT    43 STARTS. ATTEMPT NUMBER  1, TIME INCREMENT  1.000E-02

  NUMBER OF EQUATIONS =     5457     NUMBER OF FLOATING PT. OPERATIONS =  4.55E+08

     CHECK POINT   START OF SOLVER    

     CHECK POINT  END OF SOLVER       

       ELAPSED USER TIME (SEC)      =   0.0000    
       ELAPSED SYSTEM TIME (SEC)    =   0.0000    
       ELAPSED TOTAL CPU TIME (SEC) =   0.0000    
       ELAPSED WALLCLOCK TIME (SEC) =          0

               CONVERGENCE CHECKS FOR EQUILIBRIUM ITERATION     1


 AVERAGE FORCE                       158.       TIME AVG. FORCE        80.6    
 LARGEST RESIDUAL FORCE            -4.022E-12   AT NODE       1576   DOF  2
   INSTANCE: LUG-1                                                                           
 LARGEST INCREMENT OF DISP.        -4.220E-06   AT NODE       1610   DOF  2
   INSTANCE: LUG-1                                                                           
 LARGEST CORRECTION TO DISP.        1.631E-19   AT NODE       1610   DOF  2
   INSTANCE: LUG-1                                                                           
          THE FORCE     EQUILIBRIUM RESPONSE WAS LINEAR IN THIS INCREMENT
          TIME INCREMENT MAY NOW INCREASE TO     1.00    
          TIME INCREMENT REDUCED TO   1.000E-02 TO MEET NEXT OUTPUT TIME POINT

 ITERATION SUMMARY FOR THE INCREMENT:   1 TOTAL ITERATIONS, OF WHICH
   0 ARE SEVERE DISCONTINUITY ITERATIONS AND  1 ARE EQUILIBRIUM ITERATIONS.

 TIME INCREMENT COMPLETED  1.000E-02,  FRACTION OF STEP COMPLETED  0.430    
 STEP TIME COMPLETED       0.430    ,  TOTAL TIME COMPLETED        0.430    


  INCREMENT    44 STARTS. ATTEMPT NUMBER  1, TIME INCREMENT  1.000E-02

  NUMBER OF EQUATIONS =     5457     NUMBER OF FLOATING PT. OPERATIONS =  4.55E+08

     CHECK POINT   START OF SOLVER    

     CHECK POINT  END OF SOLVER       

       ELAPSED USER TIME (SEC)      =   0.0000    
       ELAPSED SYSTEM TIME (SEC)    =   0.0000    
       ELAPSED TOTAL CPU TIME (SEC) =   0.0000    
       ELAPSED WALLCLOCK TIME (SEC) =          0

               CONVERGENCE CHECKS FOR EQUILIBRIUM ITERATION     1


 AVERAGE FORCE                       161.       TIME AVG. FORCE        82.5    
 LARGEST RESIDUAL FORCE            -4.007E-12   AT NODE       1458   DOF  2
   INSTANCE: LUG-1                                                                           
 LARGEST INCREMENT OF DISP.        -4.220E-06   AT NODE       1610   DOF  2
   INSTANCE: LUG-1                                                                           
 LARGEST CORRECTION TO DISP.       -1.862E-19   AT NODE       1610   DOF  2
   INSTANCE: LUG-1                                                                           
          THE FORCE     EQUILIBRIUM RESPONSE WAS LINEAR IN THIS INCREMENT
          TIME INCREMENT MAY NOW INCREASE TO     1.00    
          TIME INCREMENT REDUCED TO   1.000E-02 TO MEET NEXT OUTPUT TIME POINT

 ITERATION SUMMARY FOR THE INCREMENT:   1 TOTAL ITERATIONS, OF WHICH
   0 ARE SEVERE DISCONTINUITY ITERATIONS AND  1 ARE EQUILIBRIUM ITERATIONS.

 TIME INCREMENT COMPLETED  1.000E-02,  FRACTION OF STEP COMPLETED  0.440    
 STEP TIME COMPLETED       0.440    ,  TOTAL TIME COMPLETED        0.440    


  INCREMENT    45 STARTS. ATTEMPT NUMBER  1, TIME INCREMENT  1.000E-02

  NUMBER OF EQUATIONS =     5457     NUMBER OF FLOATING PT. OPERATIONS =  4.55E+08

     CHECK POINT   START OF SOLVER    

     CHECK POINT  END OF SOLVER       

       ELAPSED USER TIME (SEC)      =  0.10000    
       ELAPSED SYSTEM TIME (SEC)    =   0.0000    
       ELAPSED TOTAL CPU TIME (SEC) =  0.10000    
       ELAPSED WALLCLOCK TIME (SEC) =          0

               CONVERGENCE CHECKS FOR EQUILIBRIUM ITERATION     1


 AVERAGE FORCE                       165.       TIME AVG. FORCE        84.3    
 LARGEST RESIDUAL FORCE            -3.638E-12   AT NODE       1405   DOF  2
   INSTANCE: LUG-1                                                                           
 LARGEST INCREMENT OF DISP.        -4.220E-06   AT NODE       1610   DOF  2
   INSTANCE: LUG-1                                                                           
 LARGEST CORRECTION TO DISP.        1.109E-19   AT NODE        149   DOF  2
   INSTANCE: LUG-1                                                                           
          THE FORCE     EQUILIBRIUM RESPONSE WAS LINEAR IN THIS INCREMENT
          TIME INCREMENT MAY NOW INCREASE TO     1.00    
          TIME INCREMENT REDUCED TO   1.000E-02 TO MEET NEXT OUTPUT TIME POINT

 ITERATION SUMMARY FOR THE INCREMENT:   1 TOTAL ITERATIONS, OF WHICH
   0 ARE SEVERE DISCONTINUITY ITERATIONS AND  1 ARE EQUILIBRIUM ITERATIONS.

 TIME INCREMENT COMPLETED  1.000E-02,  FRACTION OF STEP COMPLETED  0.450    
 STEP TIME COMPLETED       0.450    ,  TOTAL TIME COMPLETED        0.450    


  INCREMENT    46 STARTS. ATTEMPT NUMBER  1, TIME INCREMENT  1.000E-02

  NUMBER OF EQUATIONS =     5457     NUMBER OF FLOATING PT. OPERATIONS =  4.55E+08

     CHECK POINT   START OF SOLVER    

     CHECK POINT  END OF SOLVER       

       ELAPSED USER TIME (SEC)      =  0.10000    
       ELAPSED SYSTEM TIME (SEC)    =   0.0000    
       ELAPSED TOTAL CPU TIME (SEC) =  0.10000    
       ELAPSED WALLCLOCK TIME (SEC) =          0

               CONVERGENCE CHECKS FOR EQUILIBRIUM ITERATION     1


 AVERAGE FORCE                       169.       TIME AVG. FORCE        86.1    
 LARGEST RESIDUAL FORCE            -5.173E-12   AT NODE       1591   DOF  2
   INSTANCE: LUG-1                                                                           
 LARGEST INCREMENT OF DISP.        -4.220E-06   AT NODE       1610   DOF  2
   INSTANCE: LUG-1                                                                           
 LARGEST CORRECTION TO DISP.       -1.874E-20   AT NODE        343   DOF  3
   INSTANCE: LUG-1                                                                           
          THE FORCE     EQUILIBRIUM RESPONSE WAS LINEAR IN THIS INCREMENT
          TIME INCREMENT MAY NOW INCREASE TO     1.00    
          TIME INCREMENT REDUCED TO   1.000E-02 TO MEET NEXT OUTPUT TIME POINT

 ITERATION SUMMARY FOR THE INCREMENT:   1 TOTAL ITERATIONS, OF WHICH
   0 ARE SEVERE DISCONTINUITY ITERATIONS AND  1 ARE EQUILIBRIUM ITERATIONS.

 TIME INCREMENT COMPLETED  1.000E-02,  FRACTION OF STEP COMPLETED  0.460    
 STEP TIME COMPLETED       0.460    ,  TOTAL TIME COMPLETED        0.460    


  INCREMENT    47 STARTS. ATTEMPT NUMBER  1, TIME INCREMENT  1.000E-02

  NUMBER OF EQUATIONS =     5457     NUMBER OF FLOATING PT. OPERATIONS =  4.55E+08

     CHECK POINT   START OF SOLVER    

     CHECK POINT  END OF SOLVER       

       ELAPSED USER TIME (SEC)      =  0.10000    
       ELAPSED SYSTEM TIME (SEC)    =   0.0000    
       ELAPSED TOTAL CPU TIME (SEC) =  0.10000    
       ELAPSED WALLCLOCK TIME (SEC) =          0

               CONVERGENCE CHECKS FOR EQUILIBRIUM ITERATION     1


 AVERAGE FORCE                       172.       TIME AVG. FORCE        88.0    
[...]


 AVERAGE FORCE                       326.       TIME AVG. FORCE        165.    
 LARGEST RESIDUAL FORCE            -4.079E-12   AT NODE        495   DOF  2
   INSTANCE: LUG-1                                                                           
 LARGEST INCREMENT OF DISP.        -4.220E-06   AT NODE       1610   DOF  2
   INSTANCE: LUG-1                                                                           
 LARGEST CORRECTION TO DISP.       -3.438E-20   AT NODE        141   DOF  2
   INSTANCE: LUG-1                                                                           
          THE FORCE     EQUILIBRIUM RESPONSE WAS LINEAR IN THIS INCREMENT
          TIME INCREMENT MAY NOW INCREASE TO     1.00    
          TIME INCREMENT REDUCED TO   1.000E-02 TO MEET NEXT OUTPUT TIME POINT

 ITERATION SUMMARY FOR THE INCREMENT:   1 TOTAL ITERATIONS, OF WHICH
   0 ARE SEVERE DISCONTINUITY ITERATIONS AND  1 ARE EQUILIBRIUM ITERATIONS.

 TIME INCREMENT COMPLETED  1.000E-02,  FRACTION OF STEP COMPLETED  0.890    
 STEP TIME COMPLETED       0.890    ,  TOTAL TIME COMPLETED        0.890    


  INCREMENT    90 STARTS. ATTEMPT NUMBER  1, TIME INCREMENT  1.000E-02

  NUMBER OF EQUATIONS =     5457     NUMBER OF FLOATING PT. OPERATIONS =  4.55E+08

     CHECK POINT   START OF SOLVER    

     CHECK POINT  END OF SOLVER       

       ELAPSED USER TIME (SEC)      =   0.0000    
       ELAPSED SYSTEM TIME (SEC)    =   0.0000    
       ELAPSED TOTAL CPU TIME (SEC) =   0.0000    
       ELAPSED WALLCLOCK TIME (SEC) =          0

               CONVERGENCE CHECKS FOR EQUILIBRIUM ITERATION     1


 AVERAGE FORCE                       330.       TIME AVG. FORCE        167.    
 LARGEST RESIDUAL FORCE             5.571E-12   AT NODE       1592   DOF  2
   INSTANCE: LUG-1                                                                           
 LARGEST INCREMENT OF DISP.        -4.220E-06   AT NODE       1610   DOF  2
   INSTANCE: LUG-1                                                                           
 LARGEST CORRECTION TO DISP.        2.550E-20   AT NODE        149   DOF  3
   INSTANCE: LUG-1                                                                           
          THE FORCE     EQUILIBRIUM RESPONSE WAS LINEAR IN THIS INCREMENT
          TIME INCREMENT MAY NOW INCREASE TO     1.00    
          TIME INCREMENT REDUCED TO   1.000E-02 TO MEET NEXT OUTPUT TIME POINT

 ITERATION SUMMARY FOR THE INCREMENT:   1 TOTAL ITERATIONS, OF WHICH
   0 ARE SEVERE DISCONTINUITY ITERATIONS AND  1 ARE EQUILIBRIUM ITERATIONS.

 TIME INCREMENT COMPLETED  1.000E-02,  FRACTION OF STEP COMPLETED  0.900    
 STEP TIME COMPLETED       0.900    ,  TOTAL TIME COMPLETED        0.900    


  INCREMENT    91 STARTS. ATTEMPT NUMBER  1, TIME INCREMENT  1.000E-02

  NUMBER OF EQUATIONS =     5457     NUMBER OF FLOATING PT. OPERATIONS =  4.55E+08

     CHECK POINT   START OF SOLVER    

     CHECK POINT  END OF SOLVER       

       ELAPSED USER TIME (SEC)      =  0.10000    
       ELAPSED SYSTEM TIME (SEC)    =   0.0000    
       ELAPSED TOTAL CPU TIME (SEC) =  0.10000    
       ELAPSED WALLCLOCK TIME (SEC) =          0

               CONVERGENCE CHECKS FOR EQUILIBRIUM ITERATION     1


 AVERAGE FORCE                       334.       TIME AVG. FORCE        169.    
 LARGEST RESIDUAL FORCE             3.752E-12   AT NODE       1532   DOF  2
   INSTANCE: LUG-1                                                                           
 LARGEST INCREMENT OF DISP.        -4.220E-06   AT NODE       1610   DOF  2
   INSTANCE: LUG-1                                                                           
 LARGEST CORRECTION TO DISP.       -1.186E-19   AT NODE       1496   DOF  2
   INSTANCE: LUG-1                                                                           
          THE FORCE     EQUILIBRIUM RESPONSE WAS LINEAR IN THIS INCREMENT
          TIME INCREMENT MAY NOW INCREASE TO     1.00    
          TIME INCREMENT REDUCED TO   1.000E-02 TO MEET NEXT OUTPUT TIME POINT

 ITERATION SUMMARY FOR THE INCREMENT:   1 TOTAL ITERATIONS, OF WHICH
   0 ARE SEVERE DISCONTINUITY ITERATIONS AND  1 ARE EQUILIBRIUM ITERATIONS.

 TIME INCREMENT COMPLETED  1.000E-02,  FRACTION OF STEP COMPLETED  0.910    
 STEP TIME COMPLETED       0.910    ,  TOTAL TIME COMPLETED        0.910    


  INCREMENT    92 STARTS. ATTEMPT NUMBER  1, TIME INCREMENT  1.000E-02

  NUMBER OF EQUATIONS =     5457     NUMBER OF FLOATING PT. OPERATIONS =  4.55E+08

     CHECK POINT   START OF SOLVER    

     CHECK POINT  END OF SOLVER       

       ELAPSED USER TIME (SEC)      =   0.0000    
       ELAPSED SYSTEM TIME (SEC)    =   0.0000    
       ELAPSED TOTAL CPU TIME (SEC) =   0.0000    
       ELAPSED WALLCLOCK TIME (SEC) =          0

               CONVERGENCE CHECKS FOR EQUILIBRIUM ITERATION     1


 AVERAGE FORCE                       337.       TIME AVG. FORCE        171.    
 LARGEST RESIDUAL FORCE             5.798E-12   AT NODE       1451   DOF  2
   INSTANCE: LUG-1                                                                           
 LARGEST INCREMENT OF DISP.        -4.220E-06   AT NODE       1610   DOF  2
   INSTANCE: LUG-1                                                                           
 LARGEST CORRECTION TO DISP.        7.118E-20   AT NODE       1599   DOF  2
   INSTANCE: LUG-1                                                                           
          THE FORCE     EQUILIBRIUM RESPONSE WAS LINEAR IN THIS INCREMENT
          TIME INCREMENT MAY NOW INCREASE TO     1.00    
          TIME INCREMENT REDUCED TO   1.000E-02 TO MEET NEXT OUTPUT TIME POINT

 ITERATION SUMMARY FOR THE INCREMENT:   1 TOTAL ITERATIONS, OF WHICH
   0 ARE SEVERE DISCONTINUITY ITERATIONS AND  1 ARE EQUILIBRIUM ITERATIONS.

 TIME INCREMENT COMPLETED  1.000E-02,  FRACTION OF STEP COMPLETED  0.920    
 STEP TIME COMPLETED       0.920    ,  TOTAL TIME COMPLETED        0.920    


  INCREMENT    93 STARTS. ATTEMPT NUMBER  1, TIME INCREMENT  1.000E-02

  NUMBER OF EQUATIONS =     5457     NUMBER OF FLOATING PT. OPERATIONS =  4.55E+08

     CHECK POINT   START OF SOLVER    

     CHECK POINT  END OF SOLVER       

       ELAPSED USER TIME (SEC)      =  0.10000    
       ELAPSED SYSTEM TIME (SEC)    =   0.0000    
       ELAPSED TOTAL CPU TIME (SEC) =  0.10000    
       ELAPSED WALLCLOCK TIME (SEC) =          0

               CONVERGENCE CHECKS FOR EQUILIBRIUM ITERATION     1


 AVERAGE FORCE                       341.       TIME AVG. FORCE        172.    
 LARGEST RESIDUAL FORCE             5.457E-12   AT NODE        955   DOF  1
   INSTANCE: LUG-1                                                                           
 LARGEST INCREMENT OF DISP.        -4.220E-06   AT NODE       1610   DOF  2
   INSTANCE: LUG-1                                                                           
 LARGEST CORRECTION TO DISP.       -1.349E-19   AT NODE        128   DOF  3
   INSTANCE: LUG-1                                                                           
          THE FORCE     EQUILIBRIUM RESPONSE WAS LINEAR IN THIS INCREMENT
          TIME INCREMENT MAY NOW INCREASE TO     1.00    
          TIME INCREMENT REDUCED TO   1.000E-02 TO MEET NEXT OUTPUT TIME POINT

 ITERATION SUMMARY FOR THE INCREMENT:   1 TOTAL ITERATIONS, OF WHICH
   0 ARE SEVERE DISCONTINUITY ITERATIONS AND  1 ARE EQUILIBRIUM ITERATIONS.

 TIME INCREMENT COMPLETED  1.000E-02,  FRACTION OF STEP COMPLETED  0.930    
 STEP TIME COMPLETED       0.930    ,  TOTAL TIME COMPLETED        0.930    


  INCREMENT    94 STARTS. ATTEMPT NUMBER  1, TIME INCREMENT  1.000E-02

  NUMBER OF EQUATIONS =     5457     NUMBER OF FLOATING PT. OPERATIONS =  4.55E+08

     CHECK POINT   START OF SOLVER    

     CHECK POINT  END OF SOLVER       

       ELAPSED USER TIME (SEC)      =   0.0000    
       ELAPSED SYSTEM TIME (SEC)    =   0.0000    
       ELAPSED TOTAL CPU TIME (SEC) =   0.0000    
       ELAPSED WALLCLOCK TIME (SEC) =          0

               CONVERGENCE CHECKS FOR EQUILIBRIUM ITERATION     1


 AVERAGE FORCE                       345.       TIME AVG. FORCE        174.    
 LARGEST RESIDUAL FORCE             4.036E-12   AT NODE       1383   DOF  2
   INSTANCE: LUG-1                                                                           
 LARGEST INCREMENT OF DISP.        -4.220E-06   AT NODE       1610   DOF  2
   INSTANCE: LUG-1                                                                           
 LARGEST CORRECTION TO DISP.        3.072E-19   AT NODE        127   DOF  3
   INSTANCE: LUG-1                                                                           
          THE FORCE     EQUILIBRIUM RESPONSE WAS LINEAR IN THIS INCREMENT
          TIME INCREMENT MAY NOW INCREASE TO     1.00    
          TIME INCREMENT REDUCED TO   1.000E-02 TO MEET NEXT OUTPUT TIME POINT

 ITERATION SUMMARY FOR THE INCREMENT:   1 TOTAL ITERATIONS, OF WHICH
   0 ARE SEVERE DISCONTINUITY ITERATIONS AND  1 ARE EQUILIBRIUM ITERATIONS.

 TIME INCREMENT COMPLETED  1.000E-02,  FRACTION OF STEP COMPLETED  0.940    
 STEP TIME COMPLETED       0.940    ,  TOTAL TIME COMPLETED        0.940    


  INCREMENT    95 STARTS. ATTEMPT NUMBER  1, TIME INCREMENT  1.000E-02

  NUMBER OF EQUATIONS =     5457     NUMBER OF FLOATING PT. OPERATIONS =  4.55E+08

     CHECK POINT   START OF SOLVER    

     CHECK POINT  END OF SOLVER       

       ELAPSED USER TIME (SEC)      =  0.10000    
       ELAPSED SYSTEM TIME (SEC)    =   0.0000    
       ELAPSED TOTAL CPU TIME (SEC) =  0.10000    
       ELAPSED WALLCLOCK TIME (SEC) =          0

               CONVERGENCE CHECKS FOR EQUILIBRIUM ITERATION     1


 AVERAGE FORCE                       348.       TIME AVG. FORCE        176.    
 LARGEST RESIDUAL FORCE             5.230E-12   AT NODE       1375   DOF  2
   INSTANCE: LUG-1                                                                           
 LARGEST INCREMENT OF DISP.        -4.220E-06   AT NODE       1610   DOF  2
   INSTANCE: LUG-1                                                                           
 LARGEST CORRECTION TO DISP.        2.551E-19   AT NODE       1613   DOF  2
   INSTANCE: LUG-1                                                                           
          THE FORCE     EQUILIBRIUM RESPONSE WAS LINEAR IN THIS INCREMENT
          TIME INCREMENT MAY NOW INCREASE TO     1.00    
          TIME INCREMENT REDUCED TO   1.000E-02 TO MEET NEXT OUTPUT TIME POINT

 ITERATION SUMMARY FOR THE INCREMENT:   1 TOTAL ITERATIONS, OF WHICH
   0 ARE SEVERE DISCONTINUITY ITERATIONS AND  1 ARE EQUILIBRIUM ITERATIONS.

 TIME INCREMENT COMPLETED  1.000E-02,  FRACTION OF STEP COMPLETED  0.950    
 STEP TIME COMPLETED       0.950    ,  TOTAL TIME COMPLETED        0.950    


  INCREMENT    96 STARTS. ATTEMPT NUMBER  1, TIME INCREMENT  1.000E-02

  NUMBER OF EQUATIONS =     5457     NUMBER OF FLOATING PT. OPERATIONS =  4.55E+08

     CHECK POINT   START OF SOLVER    

     CHECK POINT  END OF SOLVER       

       ELAPSED USER TIME (SEC)      =  0.10000    
       ELAPSED SYSTEM TIME (SEC)    =   0.0000    
       ELAPSED TOTAL CPU TIME (SEC) =  0.10000    
       ELAPSED WALLCLOCK TIME (SEC) =          1

               CONVERGENCE CHECKS FOR EQUILIBRIUM ITERATION     1


 AVERAGE FORCE                       352.       TIME AVG. FORCE        178.    
 LARGEST RESIDUAL FORCE            -5.457E-12   AT NODE       1350   DOF  1
   INSTANCE: LUG-1                                                                           
 LARGEST INCREMENT OF DISP.        -4.220E-06   AT NODE       1610   DOF  2
   INSTANCE: LUG-1                                                                           
 LARGEST CORRECTION TO DISP.       -3.006E-19   AT NODE         18   DOF  2
   INSTANCE: LUG-1                                                                           
          THE FORCE     EQUILIBRIUM RESPONSE WAS LINEAR IN THIS INCREMENT
          TIME INCREMENT MAY NOW INCREASE TO     1.00    
          TIME INCREMENT REDUCED TO   1.000E-02 TO MEET NEXT OUTPUT TIME POINT

 ITERATION SUMMARY FOR THE INCREMENT:   1 TOTAL ITERATIONS, OF WHICH
   0 ARE SEVERE DISCONTINUITY ITERATIONS AND  1 ARE EQUILIBRIUM ITERATIONS.

 TIME INCREMENT COMPLETED  1.000E-02,  FRACTION OF STEP COMPLETED  0.960    
 STEP TIME COMPLETED       0.960    ,  TOTAL TIME COMPLETED        0.960    


  INCREMENT    97 STARTS. ATTEMPT NUMBER  1, TIME INCREMENT  1.000E-02

  NUMBER OF EQUATIONS =     5457     NUMBER OF FLOATING PT. OPERATIONS =  4.55E+08

     CHECK POINT   START OF SOLVER    

     CHECK POINT  END OF SOLVER       

       ELAPSED USER TIME (SEC)      =  0.10000    
       ELAPSED SYSTEM TIME (SEC)    =   0.0000    
       ELAPSED TOTAL CPU TIME (SEC) =  0.10000    
       ELAPSED WALLCLOCK TIME (SEC) =          0

               CONVERGENCE CHECKS FOR EQUILIBRIUM ITERATION     1


 AVERAGE FORCE                       356.       TIME AVG. FORCE        180.    
 LARGEST RESIDUAL FORCE             4.547E-12   AT NODE        945   DOF  1
   INSTANCE: LUG-1                                                                           
 LARGEST INCREMENT OF DISP.        -4.220E-06   AT NODE       1610   DOF  2
   INSTANCE: LUG-1                                                                           
 LARGEST CORRECTION TO DISP.       -2.809E-19   AT NODE         19   DOF  3
   INSTANCE: LUG-1                                                                           
          THE FORCE     EQUILIBRIUM RESPONSE WAS LINEAR IN THIS INCREMENT
          TIME INCREMENT MAY NOW INCREASE TO     1.00    
          TIME INCREMENT REDUCED TO   1.000E-02 TO MEET NEXT OUTPUT TIME POINT

 ITERATION SUMMARY FOR THE INCREMENT:   1 TOTAL ITERATIONS, OF WHICH
   0 ARE SEVERE DISCONTINUITY ITERATIONS AND  1 ARE EQUILIBRIUM ITERATIONS.

 TIME INCREMENT COMPLETED  1.000E-02,  FRACTION OF STEP COMPLETED  0.970    
 STEP TIME COMPLETED       0.970    ,  TOTAL TIME COMPLETED        0.970    


  INCREMENT    98 STARTS. ATTEMPT NUMBER  1, TIME INCREMENT  1.000E-02

  NUMBER OF EQUATIONS =     5457     NUMBER OF FLOATING PT. OPERATIONS =  4.55E+08

     CHECK POINT   START OF SOLVER    

     CHECK POINT  END OF SOLVER       

       ELAPSED USER TIME (SEC)      =   0.0000    
       ELAPSED SYSTEM TIME (SEC)    =   0.0000    
       ELAPSED TOTAL CPU TIME (SEC) =   0.0000    
       ELAPSED WALLCLOCK TIME (SEC) =          0

               CONVERGENCE CHECKS FOR EQUILIBRIUM ITERATION     1


 AVERAGE FORCE                       359.       TIME AVG. FORCE        182.    
 LARGEST RESIDUAL FORCE             4.547E-12   AT NODE        962   DOF  1
   INSTANCE: LUG-1                                                                           
 LARGEST INCREMENT OF DISP.        -4.220E-06   AT NODE       1610   DOF  2
   INSTANCE: LUG-1                                                                           
 LARGEST CORRECTION TO DISP.        2.683E-19   AT NODE         19   DOF  3
   INSTANCE: LUG-1                                                                           
          THE FORCE     EQUILIBRIUM RESPONSE WAS LINEAR IN THIS INCREMENT
          TIME INCREMENT MAY NOW INCREASE TO     1.00    
          TIME INCREMENT REDUCED TO   1.000E-02 TO MEET NEXT OUTPUT TIME POINT

 ITERATION SUMMARY FOR THE INCREMENT:   1 TOTAL ITERATIONS, OF WHICH
   0 ARE SEVERE DISCONTINUITY ITERATIONS AND  1 ARE EQUILIBRIUM ITERATIONS.

 TIME INCREMENT COMPLETED  1.000E-02,  FRACTION OF STEP COMPLETED  0.980    
 STEP TIME COMPLETED       0.980    ,  TOTAL TIME COMPLETED        0.980    


  INCREMENT    99 STARTS. ATTEMPT NUMBER  1, TIME INCREMENT  1.000E-02

  NUMBER OF EQUATIONS =     5457     NUMBER OF FLOATING PT. OPERATIONS =  4.55E+08

     CHECK POINT   START OF SOLVER    

     CHECK POINT  END OF SOLVER       

       ELAPSED USER TIME (SEC)      =   0.0000    
       ELAPSED SYSTEM TIME (SEC)    =   0.0000    
       ELAPSED TOTAL CPU TIME (SEC) =   0.0000    
       ELAPSED WALLCLOCK TIME (SEC) =          0

               CONVERGENCE CHECKS FOR EQUILIBRIUM ITERATION     1


 AVERAGE FORCE                       363.       TIME AVG. FORCE        183.    
 LARGEST RESIDUAL FORCE            -4.547E-12   AT NODE       1344   DOF  1
   INSTANCE: LUG-1                                                                           
 LARGEST INCREMENT OF DISP.        -4.220E-06   AT NODE       1610   DOF  2
   INSTANCE: LUG-1                                                                           
 LARGEST CORRECTION TO DISP.       -1.412E-19   AT NODE       1613   DOF  2
   INSTANCE: LUG-1                                                                           
          THE FORCE     EQUILIBRIUM RESPONSE WAS LINEAR IN THIS INCREMENT
          TIME INCREMENT MAY NOW INCREASE TO     1.00    

 ITERATION SUMMARY FOR THE INCREMENT:   1 TOTAL ITERATIONS, OF WHICH
   0 ARE SEVERE DISCONTINUITY ITERATIONS AND  1 ARE EQUILIBRIUM ITERATIONS.

 TIME INCREMENT COMPLETED  1.000E-02,  FRACTION OF STEP COMPLETED  0.990    
 STEP TIME COMPLETED       0.990    ,  TOTAL TIME COMPLETED        0.990    


  INCREMENT   100 STARTS. ATTEMPT NUMBER  1, TIME INCREMENT  1.000E-02

  NUMBER OF EQUATIONS =     5457     NUMBER OF FLOATING PT. OPERATIONS =  4.55E+08

     CHECK POINT   START OF SOLVER    

     CHECK POINT  END OF SOLVER       

       ELAPSED USER TIME (SEC)      =  0.10000    
       ELAPSED SYSTEM TIME (SEC)    =   0.0000    
       ELAPSED TOTAL CPU TIME (SEC) =  0.10000    
       ELAPSED WALLCLOCK TIME (SEC) =          0

               CONVERGENCE CHECKS FOR EQUILIBRIUM ITERATION     1


 AVERAGE FORCE                       367.       TIME AVG. FORCE        185.    
 LARGEST RESIDUAL FORCE            -6.366E-12   AT NODE       1350   DOF  1
   INSTANCE: LUG-1                                                                           
 LARGEST INCREMENT OF DISP.        -4.220E-06   AT NODE       1610   DOF  2
   INSTANCE: LUG-1                                                                           
 LARGEST CORRECTION TO DISP.        6.996E-20   AT NODE        133   DOF  2
   INSTANCE: LUG-1                                                                           
          THE FORCE     EQUILIBRIUM RESPONSE WAS LINEAR IN THIS INCREMENT
          TIME INCREMENT MAY NOW INCREASE TO     1.00    
          TIME INCREMENT REDUCED TO   1.000E-02 TO MEET NEXT OUTPUT TIME POINT

 ITERATION SUMMARY FOR THE INCREMENT:   1 TOTAL ITERATIONS, OF WHICH
   0 ARE SEVERE DISCONTINUITY ITERATIONS AND  1 ARE EQUILIBRIUM ITERATIONS.

 TIME INCREMENT COMPLETED  1.000E-02,  FRACTION OF STEP COMPLETED   1.00    
 STEP TIME COMPLETED        1.00    ,  TOTAL TIME COMPLETED         1.00    


          THE ANALYSIS HAS BEEN COMPLETED



     ANALYSIS SUMMARY:
     TOTAL OF        100  INCREMENTS
                       0  CUTBACKS IN AUTOMATIC INCREMENTATION
                     100  ITERATIONS INCLUDING CONTACT ITERATIONS IF PRESENT
                     100  PASSES THROUGH THE EQUATION SOLVER OF WHICH 
                       1  INVOLVE MATRIX DECOMPOSITION, INCLUDING
                       0  DECOMPOSITION(S) OF THE MASS MATRIX
                       1  REORDERING OF EQUATIONS TO MINIMIZE WAVEFRONT
                       0  ADDITIONAL RESIDUAL EVALUATIONS FOR LINE SEARCHES
                       0  ADDITIONAL OPERATOR EVALUATIONS FOR LINE SEARCHES
                       4  WARNING MESSAGES DURING USER INPUT PROCESSING
                       0  WARNING MESSAGES DURING ANALYSIS
                       0  ANALYSIS WARNINGS ARE NUMERICAL PROBLEM MESSAGES
                       0  ANALYSIS WARNINGS ARE NEGATIVE EIGENVALUE MESSAGES
                       0  ERROR MESSAGES



     JOB TIME SUMMARY
       USER TIME (SEC)      =   60.600    
       SYSTEM TIME (SEC)    =   3.7000    
       TOTAL CPU TIME (SEC) =   64.300    
       WALLCLOCK TIME (SEC) =         93
